
---------- Begin Simulation Statistics ----------
final_tick                               2128617196000                       # Number of ticks from beginning of simulation (restored from checkpoints and never reset)
host_inst_rate                                 214971                       # Simulator instruction rate (inst/s)
host_mem_usage                                4700620                       # Number of bytes of host memory used
host_op_rate                                   426927                       # Simulator op (including micro ops) rate (op/s)
host_seconds                                  6977.70                       # Real time elapsed on the host
host_tick_rate                              147689039                       # Simulator tick rate (ticks/s)
sim_freq                                 1000000000000                       # Frequency of simulated ticks
sim_insts                                  1500000001                       # Number of instructions simulated
sim_ops                                    2978968013                       # Number of ops (including micro ops) simulated
sim_seconds                                  1.030529                       # Number of seconds simulated
sim_ticks                                1030529355500                       # Number of ticks simulated
system.cpu.committedInsts                           0                       # Number of instructions committed
system.cpu.committedOps                             0                       # Number of ops (including micro ops) committed
system.cpu.dtb.rdAccesses                           0                       # TLB accesses on read requests
system.cpu.dtb.rdMisses                             0                       # TLB misses on read requests
system.cpu.dtb.wrAccesses                           0                       # TLB accesses on write requests
system.cpu.dtb.wrMisses                             0                       # TLB misses on write requests
system.cpu.idle_fraction                            0                       # Percentage of idle cycles
system.cpu.itb.rdAccesses                           0                       # TLB accesses on read requests
system.cpu.itb.rdMisses                             0                       # TLB misses on read requests
system.cpu.itb.wrAccesses                           0                       # TLB accesses on write requests
system.cpu.itb.wrMisses                             0                       # TLB misses on write requests
system.cpu.not_idle_fraction                        1                       # Percentage of non-idle cycles
system.cpu.numCycles                                0                       # number of cpu cycles simulated
system.cpu.numWorkItemsCompleted                    0                       # number of work items this cpu completed
system.cpu.numWorkItemsStarted                      0                       # number of work items this cpu started
system.cpu.num_busy_cycles                          0                       # Number of busy cycles
system.cpu.num_conditional_control_insts            0                       # number of instructions that are conditional controls
system.cpu.num_fp_alu_accesses                      0                       # Number of float alu accesses
system.cpu.num_fp_insts                             0                       # number of float instructions
system.cpu.num_fp_register_reads                    0                       # number of times the floating registers were read
system.cpu.num_fp_register_writes                   0                       # number of times the floating registers were written
system.cpu.num_func_calls                           0                       # number of times a function call or return occured
system.cpu.num_idle_cycles                          0                       # Number of idle cycles
system.cpu.num_int_alu_accesses                     0                       # Number of integer alu accesses
system.cpu.num_int_insts                            0                       # number of integer instructions
system.cpu.num_int_register_reads                   0                       # number of times the integer registers were read
system.cpu.num_int_register_writes                  0                       # number of times the integer registers were written
system.cpu.num_load_insts                           0                       # Number of load instructions
system.cpu.num_mem_refs                             0                       # number of memory refs
system.cpu.num_store_insts                          0                       # Number of store instructions
system.cpu.num_vec_alu_accesses                     0                       # Number of vector alu accesses
system.cpu.num_vec_insts                            0                       # number of vector instructions
system.cpu.num_vec_register_reads                   0                       # number of times the vector registers were read
system.cpu.num_vec_register_writes                  0                       # number of times the vector registers were written
system.cpu.op_class::No_OpClass                     0                       # Class of executed instruction
system.cpu.op_class::IntAlu                         0                       # Class of executed instruction
system.cpu.op_class::IntMult                        0                       # Class of executed instruction
system.cpu.op_class::IntDiv                         0                       # Class of executed instruction
system.cpu.op_class::FloatAdd                       0                       # Class of executed instruction
system.cpu.op_class::FloatCmp                       0                       # Class of executed instruction
system.cpu.op_class::FloatCvt                       0                       # Class of executed instruction
system.cpu.op_class::FloatMult                      0                       # Class of executed instruction
system.cpu.op_class::FloatMultAcc                   0                       # Class of executed instruction
system.cpu.op_class::FloatDiv                       0                       # Class of executed instruction
system.cpu.op_class::FloatMisc                      0                       # Class of executed instruction
system.cpu.op_class::FloatSqrt                      0                       # Class of executed instruction
system.cpu.op_class::SimdAdd                        0                       # Class of executed instruction
system.cpu.op_class::SimdAddAcc                     0                       # Class of executed instruction
system.cpu.op_class::SimdAlu                        0                       # Class of executed instruction
system.cpu.op_class::SimdCmp                        0                       # Class of executed instruction
system.cpu.op_class::SimdCvt                        0                       # Class of executed instruction
system.cpu.op_class::SimdMisc                       0                       # Class of executed instruction
system.cpu.op_class::SimdMult                       0                       # Class of executed instruction
system.cpu.op_class::SimdMultAcc                    0                       # Class of executed instruction
system.cpu.op_class::SimdShift                      0                       # Class of executed instruction
system.cpu.op_class::SimdShiftAcc                   0                       # Class of executed instruction
system.cpu.op_class::SimdDiv                        0                       # Class of executed instruction
system.cpu.op_class::SimdSqrt                       0                       # Class of executed instruction
system.cpu.op_class::SimdFloatAdd                   0                       # Class of executed instruction
system.cpu.op_class::SimdFloatAlu                   0                       # Class of executed instruction
system.cpu.op_class::SimdFloatCmp                   0                       # Class of executed instruction
system.cpu.op_class::SimdFloatCvt                   0                       # Class of executed instruction
system.cpu.op_class::SimdFloatDiv                   0                       # Class of executed instruction
system.cpu.op_class::SimdFloatMisc                  0                       # Class of executed instruction
system.cpu.op_class::SimdFloatMult                  0                       # Class of executed instruction
system.cpu.op_class::SimdFloatMultAcc               0                       # Class of executed instruction
system.cpu.op_class::SimdFloatSqrt                  0                       # Class of executed instruction
system.cpu.op_class::SimdReduceAdd                  0                       # Class of executed instruction
system.cpu.op_class::SimdReduceAlu                  0                       # Class of executed instruction
system.cpu.op_class::SimdReduceCmp                  0                       # Class of executed instruction
system.cpu.op_class::SimdFloatReduceAdd             0                       # Class of executed instruction
system.cpu.op_class::SimdFloatReduceCmp             0                       # Class of executed instruction
system.cpu.op_class::SimdAes                        0                       # Class of executed instruction
system.cpu.op_class::SimdAesMix                     0                       # Class of executed instruction
system.cpu.op_class::SimdSha1Hash                   0                       # Class of executed instruction
system.cpu.op_class::SimdSha1Hash2                  0                       # Class of executed instruction
system.cpu.op_class::SimdSha256Hash                 0                       # Class of executed instruction
system.cpu.op_class::SimdSha256Hash2                0                       # Class of executed instruction
system.cpu.op_class::SimdShaSigma2                  0                       # Class of executed instruction
system.cpu.op_class::SimdShaSigma3                  0                       # Class of executed instruction
system.cpu.op_class::SimdPredAlu                    0                       # Class of executed instruction
system.cpu.op_class::MemRead                        0                       # Class of executed instruction
system.cpu.op_class::MemWrite                       0                       # Class of executed instruction
system.cpu.op_class::FloatMemRead                   0                       # Class of executed instruction
system.cpu.op_class::FloatMemWrite                  0                       # Class of executed instruction
system.cpu.op_class::IprAccess                      0                       # Class of executed instruction
system.cpu.op_class::InstPrefetch                   0                       # Class of executed instruction
system.cpu.op_class::total                          0                       # Class of executed instruction
system.cpu.workload.numSyscalls                    78                       # Number of system calls
system.membus.snoop_filter.hit_multi_requests            0                       # Number of requests hitting in the snoop filter with multiple (>1) holders of the requested data.
system.membus.snoop_filter.hit_multi_snoops            0                       # Number of snoops hitting in the snoop filter with multiple (>1) holders of the requested data.
system.membus.snoop_filter.hit_single_requests     10077346                       # Number of requests hitting in the snoop filter with a single holder of the requested data.
system.membus.snoop_filter.hit_single_snoops            0                       # Number of snoops hitting in the snoop filter with a single holder of the requested data.
system.membus.snoop_filter.tot_requests      20142510                       # Total number of requests made to the snoop filter.
system.membus.snoop_filter.tot_snoops               0                       # Total number of snoops made to the snoop filter.
system.switch_cpus.branchPred.BTBCorrect            0                       # Number of correct BTB predictions (this stat may not work properly.
system.switch_cpus.branchPred.BTBHitPct      0.000000                       # BTB Hit Percentage
system.switch_cpus.branchPred.BTBHits               0                       # Number of BTB hits
system.switch_cpus.branchPred.BTBLookups    167558414                       # Number of BTB lookups
system.switch_cpus.branchPred.RASInCorrect       150263                       # Number of incorrect RAS predictions.
system.switch_cpus.branchPred.condIncorrect     10044389                       # Number of conditional branches incorrect
system.switch_cpus.branchPred.condPredicted    150519538                       # Number of conditional branches predicted
system.switch_cpus.branchPred.indirectHits     70126569                       # Number of indirect target hits.
system.switch_cpus.branchPred.indirectLookups    167558414                       # Number of indirect predictor lookups.
system.switch_cpus.branchPred.indirectMisses     97431845                       # Number of indirect misses.
system.switch_cpus.branchPred.lookups       194148347                       # Number of BP lookups
system.switch_cpus.branchPred.usedRAS        20121253                       # Number of times the RAS was used to get a target.
system.switch_cpus.branchPredindirectMispredicted      8110782                       # Number of mispredicted indirect branches.
system.switch_cpus.cc_regfile_reads         668082265                       # number of cc regfile reads
system.switch_cpus.cc_regfile_writes        415915836                       # number of cc regfile writes
system.switch_cpus.commit.amos                      0                       # Number of atomic instructions committed
system.switch_cpus.commit.branchMispredicts     10204678                       # The number of times a branch was mispredicted
system.switch_cpus.commit.branches          130886021                       # Number of branches committed
system.switch_cpus.commit.bw_lim_events      58271387                       # number cycles where commit BW limit reached
system.switch_cpus.commit.commitNonSpecStalls         9011                       # The number of times commit has been forced to stall to communicate backwards
system.switch_cpus.commit.commitSquashedInsts    264853106                       # The number of squashed insts skipped by commit
system.switch_cpus.commit.committedInsts    500000001                       # Number of instructions committed
system.switch_cpus.commit.committedOps      996981525                       # Number of ops (including micro ops) committed
system.switch_cpus.commit.committed_per_cycle::samples   1727675126                       # Number of insts commited each cycle
system.switch_cpus.commit.committed_per_cycle::mean     0.577065                       # Number of insts commited each cycle
system.switch_cpus.commit.committed_per_cycle::stdev     1.750642                       # Number of insts commited each cycle
system.switch_cpus.commit.committed_per_cycle::underflows            0      0.00%      0.00% # Number of insts commited each cycle
system.switch_cpus.commit.committed_per_cycle::0   1493368361     86.44%     86.44% # Number of insts commited each cycle
system.switch_cpus.commit.committed_per_cycle::1     48623195      2.81%     89.25% # Number of insts commited each cycle
system.switch_cpus.commit.committed_per_cycle::2     20466790      1.18%     90.44% # Number of insts commited each cycle
system.switch_cpus.commit.committed_per_cycle::3     49201814      2.85%     93.28% # Number of insts commited each cycle
system.switch_cpus.commit.committed_per_cycle::4     23850258      1.38%     94.67% # Number of insts commited each cycle
system.switch_cpus.commit.committed_per_cycle::5     16120473      0.93%     95.60% # Number of insts commited each cycle
system.switch_cpus.commit.committed_per_cycle::6      6765128      0.39%     95.99% # Number of insts commited each cycle
system.switch_cpus.commit.committed_per_cycle::7     11007720      0.64%     96.63% # Number of insts commited each cycle
system.switch_cpus.commit.committed_per_cycle::8     58271387      3.37%    100.00% # Number of insts commited each cycle
system.switch_cpus.commit.committed_per_cycle::overflows            0      0.00%    100.00% # Number of insts commited each cycle
system.switch_cpus.commit.committed_per_cycle::min_value            0                       # Number of insts commited each cycle
system.switch_cpus.commit.committed_per_cycle::max_value            8                       # Number of insts commited each cycle
system.switch_cpus.commit.committed_per_cycle::total   1727675126                       # Number of insts commited each cycle
system.switch_cpus.commit.fp_insts            1876816                       # Number of committed floating point instructions.
system.switch_cpus.commit.function_calls     13094114                       # Number of function calls committed.
system.switch_cpus.commit.int_insts         992433043                       # Number of committed integer instructions.
system.switch_cpus.commit.loads             146304457                       # Number of loads committed
system.switch_cpus.commit.membars                 560                       # Number of memory barriers committed
system.switch_cpus.commit.op_class_0::No_OpClass      4430607      0.44%      0.44% # Class of committed instruction
system.switch_cpus.commit.op_class_0::IntAlu    800857666     80.33%     80.77% # Class of committed instruction
system.switch_cpus.commit.op_class_0::IntMult       641434      0.06%     80.84% # Class of committed instruction
system.switch_cpus.commit.op_class_0::IntDiv      1361277      0.14%     80.97% # Class of committed instruction
system.switch_cpus.commit.op_class_0::FloatAdd         5444      0.00%     80.97% # Class of committed instruction
system.switch_cpus.commit.op_class_0::FloatCmp            0      0.00%     80.97% # Class of committed instruction
system.switch_cpus.commit.op_class_0::FloatCvt            0      0.00%     80.97% # Class of committed instruction
system.switch_cpus.commit.op_class_0::FloatMult            0      0.00%     80.97% # Class of committed instruction
system.switch_cpus.commit.op_class_0::FloatMultAcc            0      0.00%     80.97% # Class of committed instruction
system.switch_cpus.commit.op_class_0::FloatDiv            0      0.00%     80.97% # Class of committed instruction
system.switch_cpus.commit.op_class_0::FloatMisc            0      0.00%     80.97% # Class of committed instruction
system.switch_cpus.commit.op_class_0::FloatSqrt            0      0.00%     80.97% # Class of committed instruction
system.switch_cpus.commit.op_class_0::SimdAdd            0      0.00%     80.97% # Class of committed instruction
system.switch_cpus.commit.op_class_0::SimdAddAcc            0      0.00%     80.97% # Class of committed instruction
system.switch_cpus.commit.op_class_0::SimdAlu           46      0.00%     80.97% # Class of committed instruction
system.switch_cpus.commit.op_class_0::SimdCmp            0      0.00%     80.97% # Class of committed instruction
system.switch_cpus.commit.op_class_0::SimdCvt            0      0.00%     80.97% # Class of committed instruction
system.switch_cpus.commit.op_class_0::SimdMisc        38154      0.00%     80.98% # Class of committed instruction
system.switch_cpus.commit.op_class_0::SimdMult            0      0.00%     80.98% # Class of committed instruction
system.switch_cpus.commit.op_class_0::SimdMultAcc            0      0.00%     80.98% # Class of committed instruction
system.switch_cpus.commit.op_class_0::SimdShift            0      0.00%     80.98% # Class of committed instruction
system.switch_cpus.commit.op_class_0::SimdShiftAcc            0      0.00%     80.98% # Class of committed instruction
system.switch_cpus.commit.op_class_0::SimdDiv            0      0.00%     80.98% # Class of committed instruction
system.switch_cpus.commit.op_class_0::SimdSqrt            0      0.00%     80.98% # Class of committed instruction
system.switch_cpus.commit.op_class_0::SimdFloatAdd            0      0.00%     80.98% # Class of committed instruction
system.switch_cpus.commit.op_class_0::SimdFloatAlu            0      0.00%     80.98% # Class of committed instruction
system.switch_cpus.commit.op_class_0::SimdFloatCmp            0      0.00%     80.98% # Class of committed instruction
system.switch_cpus.commit.op_class_0::SimdFloatCvt           46      0.00%     80.98% # Class of committed instruction
system.switch_cpus.commit.op_class_0::SimdFloatDiv            0      0.00%     80.98% # Class of committed instruction
system.switch_cpus.commit.op_class_0::SimdFloatMisc            0      0.00%     80.98% # Class of committed instruction
system.switch_cpus.commit.op_class_0::SimdFloatMult           23      0.00%     80.98% # Class of committed instruction
system.switch_cpus.commit.op_class_0::SimdFloatMultAcc            0      0.00%     80.98% # Class of committed instruction
system.switch_cpus.commit.op_class_0::SimdFloatSqrt            0      0.00%     80.98% # Class of committed instruction
system.switch_cpus.commit.op_class_0::SimdReduceAdd            0      0.00%     80.98% # Class of committed instruction
system.switch_cpus.commit.op_class_0::SimdReduceAlu            0      0.00%     80.98% # Class of committed instruction
system.switch_cpus.commit.op_class_0::SimdReduceCmp            0      0.00%     80.98% # Class of committed instruction
system.switch_cpus.commit.op_class_0::SimdFloatReduceAdd            0      0.00%     80.98% # Class of committed instruction
system.switch_cpus.commit.op_class_0::SimdFloatReduceCmp            0      0.00%     80.98% # Class of committed instruction
system.switch_cpus.commit.op_class_0::SimdAes            0      0.00%     80.98% # Class of committed instruction
system.switch_cpus.commit.op_class_0::SimdAesMix            0      0.00%     80.98% # Class of committed instruction
system.switch_cpus.commit.op_class_0::SimdSha1Hash            0      0.00%     80.98% # Class of committed instruction
system.switch_cpus.commit.op_class_0::SimdSha1Hash2            0      0.00%     80.98% # Class of committed instruction
system.switch_cpus.commit.op_class_0::SimdSha256Hash            0      0.00%     80.98% # Class of committed instruction
system.switch_cpus.commit.op_class_0::SimdSha256Hash2            0      0.00%     80.98% # Class of committed instruction
system.switch_cpus.commit.op_class_0::SimdShaSigma2            0      0.00%     80.98% # Class of committed instruction
system.switch_cpus.commit.op_class_0::SimdShaSigma3            0      0.00%     80.98% # Class of committed instruction
system.switch_cpus.commit.op_class_0::SimdPredAlu            0      0.00%     80.98% # Class of committed instruction
system.switch_cpus.commit.op_class_0::MemRead    145465116     14.59%     95.57% # Class of committed instruction
system.switch_cpus.commit.op_class_0::MemWrite     42354052      4.25%     99.82% # Class of committed instruction
system.switch_cpus.commit.op_class_0::FloatMemRead       839341      0.08%     99.90% # Class of committed instruction
system.switch_cpus.commit.op_class_0::FloatMemWrite       988318      0.10%    100.00% # Class of committed instruction
system.switch_cpus.commit.op_class_0::IprAccess            0      0.00%    100.00% # Class of committed instruction
system.switch_cpus.commit.op_class_0::InstPrefetch            0      0.00%    100.00% # Class of committed instruction
system.switch_cpus.commit.op_class_0::total    996981524                       # Class of committed instruction
system.switch_cpus.commit.refs              189646827                       # Number of memory references committed
system.switch_cpus.commit.swp_count                 0                       # Number of s/w prefetches committed
system.switch_cpus.commit.vec_insts                 0                       # Number of committed Vector instructions.
system.switch_cpus.committedInsts           500000000                       # Number of Instructions Simulated
system.switch_cpus.committedOps             996981524                       # Number of Ops (including micro ops) Simulated
system.switch_cpus.cpi                       4.122117                       # CPI: Cycles Per Instruction
system.switch_cpus.cpi_total                 4.122117                       # CPI: Total CPI of All Threads
system.switch_cpus.decode.BlockedCycles    1235831875                       # Number of cycles decode is blocked
system.switch_cpus.decode.DecodedInsts     1359975918                       # Number of instructions handled by decode
system.switch_cpus.decode.IdleCycles        170769434                       # Number of cycles decode is idle
system.switch_cpus.decode.RunCycles         317906084                       # Number of cycles decode is running
system.switch_cpus.decode.SquashCycles       10486798                       # Number of cycles decode is squashing
system.switch_cpus.decode.UnblockCycles      33565365                       # Number of cycles decode is unblocking
system.switch_cpus.dtb.rdAccesses           176988013                       # TLB accesses on read requests
system.switch_cpus.dtb.rdMisses               3084113                       # TLB misses on read requests
system.switch_cpus.dtb.wrAccesses            55481764                       # TLB accesses on write requests
system.switch_cpus.dtb.wrMisses                194853                       # TLB misses on write requests
system.switch_cpus.fetch.Branches           194148347                       # Number of branches that fetch encountered
system.switch_cpus.fetch.CacheLines         105550948                       # Number of cache lines fetched
system.switch_cpus.fetch.Cycles            1499405063                       # Number of cycles fetch has run and was not squashing or blocked
system.switch_cpus.fetch.IcacheSquashes       4200596                       # Number of outstanding Icache misses that were squashed
system.switch_cpus.fetch.IcacheWaitRetryStallCycles     44673918                       # Number of stall cycles due to full MSHR
system.switch_cpus.fetch.Insts              768285822                       # Number of instructions fetch has processed
system.switch_cpus.fetch.MiscStallCycles     24846682                       # Number of cycles fetch has spent waiting on interrupts, or bad addresses, or out of MSHRs
system.switch_cpus.fetch.PendingQuiesceStallCycles          828                       # Number of stall cycles due to pending quiesce instructions
system.switch_cpus.fetch.PendingTrapStallCycles      1026630                       # Number of stall cycles due to pending traps
system.switch_cpus.fetch.SquashCycles        20973596                       # Number of cycles fetch has spent squashing
system.switch_cpus.fetch.TlbCycles                796                       # Number of cycles fetch has spent waiting for tlb
system.switch_cpus.fetch.branchRate          0.094198                       # Number of branch fetches per cycle
system.switch_cpus.fetch.icacheStallCycles    188118848                       # Number of cycles fetch is stalled on an Icache miss
system.switch_cpus.fetch.predictedBranches     90247822                       # Number of branches that fetch has predicted taken
system.switch_cpus.fetch.rate                0.372763                       # Number of inst fetches per cycle
system.switch_cpus.fetch.rateDist::samples   1768559563                       # Number of instructions fetched each cycle (Total)
system.switch_cpus.fetch.rateDist::mean      0.866467                       # Number of instructions fetched each cycle (Total)
system.switch_cpus.fetch.rateDist::stdev     2.169612                       # Number of instructions fetched each cycle (Total)
system.switch_cpus.fetch.rateDist::underflows            0      0.00%      0.00% # Number of instructions fetched each cycle (Total)
system.switch_cpus.fetch.rateDist::0       1476409387     83.48%     83.48% # Number of instructions fetched each cycle (Total)
system.switch_cpus.fetch.rateDist::1         18265032      1.03%     84.51% # Number of instructions fetched each cycle (Total)
system.switch_cpus.fetch.rateDist::2         25406838      1.44%     85.95% # Number of instructions fetched each cycle (Total)
system.switch_cpus.fetch.rateDist::3         23965972      1.36%     87.31% # Number of instructions fetched each cycle (Total)
system.switch_cpus.fetch.rateDist::4         69265753      3.92%     91.22% # Number of instructions fetched each cycle (Total)
system.switch_cpus.fetch.rateDist::5         24626388      1.39%     92.61% # Number of instructions fetched each cycle (Total)
system.switch_cpus.fetch.rateDist::6         19795155      1.12%     93.73% # Number of instructions fetched each cycle (Total)
system.switch_cpus.fetch.rateDist::7         14144172      0.80%     94.53% # Number of instructions fetched each cycle (Total)
system.switch_cpus.fetch.rateDist::8         96680866      5.47%    100.00% # Number of instructions fetched each cycle (Total)
system.switch_cpus.fetch.rateDist::overflows            0      0.00%    100.00% # Number of instructions fetched each cycle (Total)
system.switch_cpus.fetch.rateDist::min_value            0                       # Number of instructions fetched each cycle (Total)
system.switch_cpus.fetch.rateDist::max_value            8                       # Number of instructions fetched each cycle (Total)
system.switch_cpus.fetch.rateDist::total   1768559563                       # Number of instructions fetched each cycle (Total)
system.switch_cpus.fp_regfile_reads           5255637                       # number of floating regfile reads
system.switch_cpus.fp_regfile_writes          4475139                       # number of floating regfile writes
system.switch_cpus.idleCycles               292499148                       # Total number of cycles that the CPU has spent unscheduled due to idling
system.switch_cpus.iew.branchMispredicts     12032989                       # Number of branch mispredicts detected at execute
system.switch_cpus.iew.exec_branches        142634188                       # Number of branches executed
system.switch_cpus.iew.exec_nop                     0                       # number of nop insts executed
system.switch_cpus.iew.exec_rate             0.593609                       # Inst execution rate
system.switch_cpus.iew.exec_refs            287194750                       # number of memory reference insts executed
system.switch_cpus.iew.exec_stores           55448181                       # Number of stores executed
system.switch_cpus.iew.exec_swp                     0                       # number of swp insts executed
system.switch_cpus.iew.iewBlockCycles      1017915074                       # Number of cycles IEW is blocking
system.switch_cpus.iew.iewDispLoadInsts     194179818                       # Number of dispatched load instructions
system.switch_cpus.iew.iewDispNonSpecInsts        48686                       # Number of dispatched non-speculative instructions
system.switch_cpus.iew.iewDispSquashedInsts       921987                       # Number of squashed instructions skipped by dispatch
system.switch_cpus.iew.iewDispStoreInsts     63815546                       # Number of dispatched store instructions
system.switch_cpus.iew.iewDispatchedInsts   1271679815                       # Number of instructions dispatched to IQ
system.switch_cpus.iew.iewExecLoadInsts     231746569                       # Number of load instructions executed
system.switch_cpus.iew.iewExecSquashedInsts     19366312                       # Number of squashed instructions skipped in execute
system.switch_cpus.iew.iewExecutedInsts    1223463294                       # Number of executed instructions
system.switch_cpus.iew.iewIQFullEvents        5252294                       # Number of times the IQ has become full, causing a stall
system.switch_cpus.iew.iewIdleCycles                0                       # Number of cycles IEW is idle
system.switch_cpus.iew.iewLSQFullEvents      10127919                       # Number of times the LSQ has become full, causing a stall
system.switch_cpus.iew.iewSquashCycles       10486798                       # Number of cycles IEW is squashing
system.switch_cpus.iew.iewUnblockCycles      20388177                       # Number of cycles IEW is unblocking
system.switch_cpus.iew.lsq.thread0.blockedLoads            0                       # Number of blocked loads due to partial load-store forwarding
system.switch_cpus.iew.lsq.thread0.cacheBlocked     10481790                       # Number of times an access to memory failed due to the cache being blocked
system.switch_cpus.iew.lsq.thread0.forwLoads     17447163                       # Number of loads that had data forwarded from stores
system.switch_cpus.iew.lsq.thread0.ignoredResponses       130641                       # Number of memory responses ignored because the instruction is squashed
system.switch_cpus.iew.lsq.thread0.invAddrLoads            0                       # Number of loads ignored due to an invalid address
system.switch_cpus.iew.lsq.thread0.invAddrSwpfs            0                       # Number of software prefetches ignored due to an invalid address
system.switch_cpus.iew.lsq.thread0.memOrderViolation        60118                       # Number of memory ordering violations
system.switch_cpus.iew.lsq.thread0.rescheduledLoads        18463                       # Number of loads that were rescheduled
system.switch_cpus.iew.lsq.thread0.squashedLoads     47875347                       # Number of loads squashed
system.switch_cpus.iew.lsq.thread0.squashedStores     20473176                       # Number of stores squashed
system.switch_cpus.iew.memOrderViolationEvents        60118                       # Number of memory order violations
system.switch_cpus.iew.predictedNotTakenIncorrect      9362931                       # Number of branches that were predicted not taken incorrectly
system.switch_cpus.iew.predictedTakenIncorrect      2670058                       # Number of branches that were predicted taken incorrectly
system.switch_cpus.iew.wb_consumers        1380039039                       # num instructions consuming a value
system.switch_cpus.iew.wb_count            1153824112                       # cumulative count of insts written-back
system.switch_cpus.iew.wb_fanout             0.610860                       # average fanout of values written-back
system.switch_cpus.iew.wb_producers         843010614                       # num instructions producing a value
system.switch_cpus.iew.wb_rate               0.559821                       # insts written-back per cycle
system.switch_cpus.iew.wb_sent             1159821219                       # cumulative count of insts sent to commit
system.switch_cpus.int_regfile_reads       1832326222                       # number of integer regfile reads
system.switch_cpus.int_regfile_writes       950824554                       # number of integer regfile writes
system.switch_cpus.ipc                       0.242594                       # IPC: Instructions Per Cycle
system.switch_cpus.ipc_total                 0.242594                       # IPC: Total IPC of All Threads
system.switch_cpus.iq.FU_type_0::No_OpClass      9155396      0.74%      0.74% # Type of FU issued
system.switch_cpus.iq.FU_type_0::IntAlu     937364817     75.42%     76.16% # Type of FU issued
system.switch_cpus.iq.FU_type_0::IntMult       684085      0.06%     76.21% # Type of FU issued
system.switch_cpus.iq.FU_type_0::IntDiv       1596926      0.13%     76.34% # Type of FU issued
system.switch_cpus.iq.FU_type_0::FloatAdd         7065      0.00%     76.34% # Type of FU issued
system.switch_cpus.iq.FU_type_0::FloatCmp            0      0.00%     76.34% # Type of FU issued
system.switch_cpus.iq.FU_type_0::FloatCvt            2      0.00%     76.34% # Type of FU issued
system.switch_cpus.iq.FU_type_0::FloatMult            1      0.00%     76.34% # Type of FU issued
system.switch_cpus.iq.FU_type_0::FloatMultAcc            0      0.00%     76.34% # Type of FU issued
system.switch_cpus.iq.FU_type_0::FloatDiv           15      0.00%     76.34% # Type of FU issued
system.switch_cpus.iq.FU_type_0::FloatMisc            0      0.00%     76.34% # Type of FU issued
system.switch_cpus.iq.FU_type_0::FloatSqrt            0      0.00%     76.34% # Type of FU issued
system.switch_cpus.iq.FU_type_0::SimdAdd            0      0.00%     76.34% # Type of FU issued
system.switch_cpus.iq.FU_type_0::SimdAddAcc            0      0.00%     76.34% # Type of FU issued
system.switch_cpus.iq.FU_type_0::SimdAlu        85253      0.01%     76.35% # Type of FU issued
system.switch_cpus.iq.FU_type_0::SimdCmp            0      0.00%     76.35% # Type of FU issued
system.switch_cpus.iq.FU_type_0::SimdCvt            1      0.00%     76.35% # Type of FU issued
system.switch_cpus.iq.FU_type_0::SimdMisc        72546      0.01%     76.36% # Type of FU issued
system.switch_cpus.iq.FU_type_0::SimdMult            0      0.00%     76.36% # Type of FU issued
system.switch_cpus.iq.FU_type_0::SimdMultAcc            0      0.00%     76.36% # Type of FU issued
system.switch_cpus.iq.FU_type_0::SimdShift            0      0.00%     76.36% # Type of FU issued
system.switch_cpus.iq.FU_type_0::SimdShiftAcc            0      0.00%     76.36% # Type of FU issued
system.switch_cpus.iq.FU_type_0::SimdDiv            0      0.00%     76.36% # Type of FU issued
system.switch_cpus.iq.FU_type_0::SimdSqrt            0      0.00%     76.36% # Type of FU issued
system.switch_cpus.iq.FU_type_0::SimdFloatAdd            0      0.00%     76.36% # Type of FU issued
system.switch_cpus.iq.FU_type_0::SimdFloatAlu            0      0.00%     76.36% # Type of FU issued
system.switch_cpus.iq.FU_type_0::SimdFloatCmp            0      0.00%     76.36% # Type of FU issued
system.switch_cpus.iq.FU_type_0::SimdFloatCvt        25027      0.00%     76.36% # Type of FU issued
system.switch_cpus.iq.FU_type_0::SimdFloatDiv            0      0.00%     76.36% # Type of FU issued
system.switch_cpus.iq.FU_type_0::SimdFloatMisc            0      0.00%     76.36% # Type of FU issued
system.switch_cpus.iq.FU_type_0::SimdFloatMult         6829      0.00%     76.36% # Type of FU issued
system.switch_cpus.iq.FU_type_0::SimdFloatMultAcc            0      0.00%     76.36% # Type of FU issued
system.switch_cpus.iq.FU_type_0::SimdFloatSqrt            0      0.00%     76.36% # Type of FU issued
system.switch_cpus.iq.FU_type_0::SimdReduceAdd            0      0.00%     76.36% # Type of FU issued
system.switch_cpus.iq.FU_type_0::SimdReduceAlu            0      0.00%     76.36% # Type of FU issued
system.switch_cpus.iq.FU_type_0::SimdReduceCmp            0      0.00%     76.36% # Type of FU issued
system.switch_cpus.iq.FU_type_0::SimdFloatReduceAdd            0      0.00%     76.36% # Type of FU issued
system.switch_cpus.iq.FU_type_0::SimdFloatReduceCmp            0      0.00%     76.36% # Type of FU issued
system.switch_cpus.iq.FU_type_0::SimdAes            0      0.00%     76.36% # Type of FU issued
system.switch_cpus.iq.FU_type_0::SimdAesMix            0      0.00%     76.36% # Type of FU issued
system.switch_cpus.iq.FU_type_0::SimdSha1Hash            0      0.00%     76.36% # Type of FU issued
system.switch_cpus.iq.FU_type_0::SimdSha1Hash2            0      0.00%     76.36% # Type of FU issued
system.switch_cpus.iq.FU_type_0::SimdSha256Hash            0      0.00%     76.36% # Type of FU issued
system.switch_cpus.iq.FU_type_0::SimdSha256Hash2            0      0.00%     76.36% # Type of FU issued
system.switch_cpus.iq.FU_type_0::SimdShaSigma2            0      0.00%     76.36% # Type of FU issued
system.switch_cpus.iq.FU_type_0::SimdShaSigma3            0      0.00%     76.36% # Type of FU issued
system.switch_cpus.iq.FU_type_0::SimdPredAlu            0      0.00%     76.36% # Type of FU issued
system.switch_cpus.iq.FU_type_0::MemRead    230427943     18.54%     94.90% # Type of FU issued
system.switch_cpus.iq.FU_type_0::MemWrite     51947642      4.18%     99.08% # Type of FU issued
system.switch_cpus.iq.FU_type_0::FloatMemRead      6378661      0.51%     99.59% # Type of FU issued
system.switch_cpus.iq.FU_type_0::FloatMemWrite      5077401      0.41%    100.00% # Type of FU issued
system.switch_cpus.iq.FU_type_0::IprAccess            0      0.00%    100.00% # Type of FU issued
system.switch_cpus.iq.FU_type_0::InstPrefetch            0      0.00%    100.00% # Type of FU issued
system.switch_cpus.iq.FU_type_0::total     1242829610                       # Type of FU issued
system.switch_cpus.iq.fp_alu_accesses        11659260                       # Number of floating point alu accesses
system.switch_cpus.iq.fp_inst_queue_reads     23637867                       # Number of floating instruction queue reads
system.switch_cpus.iq.fp_inst_queue_wakeup_accesses      9086365                       # Number of floating instruction queue wakeup accesses
system.switch_cpus.iq.fp_inst_queue_writes     21702456                       # Number of floating instruction queue writes
system.switch_cpus.iq.fu_busy_cnt                   0                       # FU busy when requested
system.switch_cpus.iq.fu_busy_rate                  0                       # FU busy rate (busy events/executed inst)
system.switch_cpus.iq.fu_full::No_OpClass            0                       # attempts to use FU when none available
system.switch_cpus.iq.fu_full::IntAlu               0                       # attempts to use FU when none available
system.switch_cpus.iq.fu_full::IntMult              0                       # attempts to use FU when none available
system.switch_cpus.iq.fu_full::IntDiv               0                       # attempts to use FU when none available
system.switch_cpus.iq.fu_full::FloatAdd             0                       # attempts to use FU when none available
system.switch_cpus.iq.fu_full::FloatCmp             0                       # attempts to use FU when none available
system.switch_cpus.iq.fu_full::FloatCvt             0                       # attempts to use FU when none available
system.switch_cpus.iq.fu_full::FloatMult            0                       # attempts to use FU when none available
system.switch_cpus.iq.fu_full::FloatMultAcc            0                       # attempts to use FU when none available
system.switch_cpus.iq.fu_full::FloatDiv             0                       # attempts to use FU when none available
system.switch_cpus.iq.fu_full::FloatMisc            0                       # attempts to use FU when none available
system.switch_cpus.iq.fu_full::FloatSqrt            0                       # attempts to use FU when none available
system.switch_cpus.iq.fu_full::SimdAdd              0                       # attempts to use FU when none available
system.switch_cpus.iq.fu_full::SimdAddAcc            0                       # attempts to use FU when none available
system.switch_cpus.iq.fu_full::SimdAlu              0                       # attempts to use FU when none available
system.switch_cpus.iq.fu_full::SimdCmp              0                       # attempts to use FU when none available
system.switch_cpus.iq.fu_full::SimdCvt              0                       # attempts to use FU when none available
system.switch_cpus.iq.fu_full::SimdMisc             0                       # attempts to use FU when none available
system.switch_cpus.iq.fu_full::SimdMult             0                       # attempts to use FU when none available
system.switch_cpus.iq.fu_full::SimdMultAcc            0                       # attempts to use FU when none available
system.switch_cpus.iq.fu_full::SimdShift            0                       # attempts to use FU when none available
system.switch_cpus.iq.fu_full::SimdShiftAcc            0                       # attempts to use FU when none available
system.switch_cpus.iq.fu_full::SimdDiv              0                       # attempts to use FU when none available
system.switch_cpus.iq.fu_full::SimdSqrt             0                       # attempts to use FU when none available
system.switch_cpus.iq.fu_full::SimdFloatAdd            0                       # attempts to use FU when none available
system.switch_cpus.iq.fu_full::SimdFloatAlu            0                       # attempts to use FU when none available
system.switch_cpus.iq.fu_full::SimdFloatCmp            0                       # attempts to use FU when none available
system.switch_cpus.iq.fu_full::SimdFloatCvt            0                       # attempts to use FU when none available
system.switch_cpus.iq.fu_full::SimdFloatDiv            0                       # attempts to use FU when none available
system.switch_cpus.iq.fu_full::SimdFloatMisc            0                       # attempts to use FU when none available
system.switch_cpus.iq.fu_full::SimdFloatMult            0                       # attempts to use FU when none available
system.switch_cpus.iq.fu_full::SimdFloatMultAcc            0                       # attempts to use FU when none available
system.switch_cpus.iq.fu_full::SimdFloatSqrt            0                       # attempts to use FU when none available
system.switch_cpus.iq.fu_full::SimdReduceAdd            0                       # attempts to use FU when none available
system.switch_cpus.iq.fu_full::SimdReduceAlu            0                       # attempts to use FU when none available
system.switch_cpus.iq.fu_full::SimdReduceCmp            0                       # attempts to use FU when none available
system.switch_cpus.iq.fu_full::SimdFloatReduceAdd            0                       # attempts to use FU when none available
system.switch_cpus.iq.fu_full::SimdFloatReduceCmp            0                       # attempts to use FU when none available
system.switch_cpus.iq.fu_full::SimdAes              0                       # attempts to use FU when none available
system.switch_cpus.iq.fu_full::SimdAesMix            0                       # attempts to use FU when none available
system.switch_cpus.iq.fu_full::SimdSha1Hash            0                       # attempts to use FU when none available
system.switch_cpus.iq.fu_full::SimdSha1Hash2            0                       # attempts to use FU when none available
system.switch_cpus.iq.fu_full::SimdSha256Hash            0                       # attempts to use FU when none available
system.switch_cpus.iq.fu_full::SimdSha256Hash2            0                       # attempts to use FU when none available
system.switch_cpus.iq.fu_full::SimdShaSigma2            0                       # attempts to use FU when none available
system.switch_cpus.iq.fu_full::SimdShaSigma3            0                       # attempts to use FU when none available
system.switch_cpus.iq.fu_full::SimdPredAlu            0                       # attempts to use FU when none available
system.switch_cpus.iq.fu_full::MemRead              0                       # attempts to use FU when none available
system.switch_cpus.iq.fu_full::MemWrite             0                       # attempts to use FU when none available
system.switch_cpus.iq.fu_full::FloatMemRead            0                       # attempts to use FU when none available
system.switch_cpus.iq.fu_full::FloatMemWrite            0                       # attempts to use FU when none available
system.switch_cpus.iq.fu_full::IprAccess            0                       # attempts to use FU when none available
system.switch_cpus.iq.fu_full::InstPrefetch            0                       # attempts to use FU when none available
system.switch_cpus.iq.int_alu_accesses     1222014954                       # Number of integer alu accesses
system.switch_cpus.iq.int_inst_queue_reads   4245696426                       # Number of integer instruction queue reads
system.switch_cpus.iq.int_inst_queue_wakeup_accesses   1144737747                       # Number of integer instruction queue wakeup accesses
system.switch_cpus.iq.int_inst_queue_writes   1524732163                       # Number of integer instruction queue writes
system.switch_cpus.iq.iqInstsAdded         1271499360                       # Number of instructions added to the IQ (excludes non-spec)
system.switch_cpus.iq.iqInstsIssued        1242829610                       # Number of instructions issued
system.switch_cpus.iq.iqNonSpecInstsAdded       180455                       # Number of non-speculative instructions added to the IQ
system.switch_cpus.iq.iqSquashedInstsExamined    274698178                       # Number of squashed instructions iterated over during squash; mainly for profiling
system.switch_cpus.iq.iqSquashedInstsIssued     15115514                       # Number of squashed instructions issued
system.switch_cpus.iq.iqSquashedNonSpecRemoved       171444                       # Number of squashed non-spec instructions that were removed
system.switch_cpus.iq.iqSquashedOperandsExamined    355192284                       # Number of squashed operands that are examined and possibly removed from graph
system.switch_cpus.iq.issued_per_cycle::samples   1768559563                       # Number of insts issued each cycle
system.switch_cpus.iq.issued_per_cycle::mean     0.702736                       # Number of insts issued each cycle
system.switch_cpus.iq.issued_per_cycle::stdev     1.388372                       # Number of insts issued each cycle
system.switch_cpus.iq.issued_per_cycle::underflows            0      0.00%      0.00% # Number of insts issued each cycle
system.switch_cpus.iq.issued_per_cycle::0   1356094835     76.68%     76.68% # Number of insts issued each cycle
system.switch_cpus.iq.issued_per_cycle::1     63485722      3.59%     80.27% # Number of insts issued each cycle
system.switch_cpus.iq.issued_per_cycle::2     75634997      4.28%     84.54% # Number of insts issued each cycle
system.switch_cpus.iq.issued_per_cycle::3     65302142      3.69%     88.24% # Number of insts issued each cycle
system.switch_cpus.iq.issued_per_cycle::4    208041867     11.76%    100.00% # Number of insts issued each cycle
system.switch_cpus.iq.issued_per_cycle::overflows            0      0.00%    100.00% # Number of insts issued each cycle
system.switch_cpus.iq.issued_per_cycle::min_value            0                       # Number of insts issued each cycle
system.switch_cpus.iq.issued_per_cycle::max_value            4                       # Number of insts issued each cycle
system.switch_cpus.iq.issued_per_cycle::total   1768559563                       # Number of insts issued each cycle
system.switch_cpus.iq.rate                   0.603005                       # Inst issue rate
system.switch_cpus.iq.vec_alu_accesses              0                       # Number of vector alu accesses
system.switch_cpus.iq.vec_inst_queue_reads            0                       # Number of vector instruction queue reads
system.switch_cpus.iq.vec_inst_queue_wakeup_accesses            0                       # Number of vector instruction queue wakeup accesses
system.switch_cpus.iq.vec_inst_queue_writes            0                       # Number of vector instruction queue writes
system.switch_cpus.itb.rdAccesses                   0                       # TLB accesses on read requests
system.switch_cpus.itb.rdMisses                     0                       # TLB misses on read requests
system.switch_cpus.itb.wrAccesses           105727237                       # TLB accesses on write requests
system.switch_cpus.itb.wrMisses               1134653                       # TLB misses on write requests
system.switch_cpus.memDep0.conflictingLoads      8008188                       # Number of conflicting loads.
system.switch_cpus.memDep0.conflictingStores      5336082                       # Number of conflicting stores.
system.switch_cpus.memDep0.insertedLoads    194179818                       # Number of loads inserted to the mem dependence unit.
system.switch_cpus.memDep0.insertedStores     63815546                       # Number of stores inserted to the mem dependence unit.
system.switch_cpus.misc_regfile_reads       572187892                       # number of misc regfile reads
system.switch_cpus.numCycles               2061058711                       # number of cpu cycles simulated
system.switch_cpus.numWorkItemsCompleted            0                       # number of work items this cpu completed
system.switch_cpus.numWorkItemsStarted              0                       # number of work items this cpu started
system.switch_cpus.rename.BlockCycles      1148489037                       # Number of cycles rename is blocking
system.switch_cpus.rename.CommittedMaps    1196710614                       # Number of HB maps that are committed
system.switch_cpus.rename.IQFullEvents       36099480                       # Number of times rename has blocked due to IQ full
system.switch_cpus.rename.IdleCycles        189335840                       # Number of cycles rename is idle
system.switch_cpus.rename.LQFullEvents        9502415                       # Number of times rename has blocked due to LQ full
system.switch_cpus.rename.ROBFullEvents       2084406                       # Number of times rename has blocked due to ROB full
system.switch_cpus.rename.RenameLookups    3391266395                       # Number of register rename lookups that rename has made
system.switch_cpus.rename.RenamedInsts     1330612293                       # Number of instructions processed by rename
system.switch_cpus.rename.RenamedOperands   1560064371                       # Number of destination operands rename has renamed
system.switch_cpus.rename.RunCycles         326776774                       # Number of cycles rename is running
system.switch_cpus.rename.SQFullEvents       33875345                       # Number of times rename has blocked due to SQ full
system.switch_cpus.rename.SquashCycles       10486798                       # Number of cycles rename is squashing
system.switch_cpus.rename.UnblockCycles      92922619                       # Number of cycles rename is unblocking
system.switch_cpus.rename.UndoneMaps        363353590                       # Number of HB maps that are undone due to squashing
system.switch_cpus.rename.fp_rename_lookups      7126589                       # Number of floating rename lookups
system.switch_cpus.rename.int_rename_lookups   2009806216                       # Number of integer rename lookups
system.switch_cpus.rename.serializeStallCycles       548489                       # count of cycles rename stalled for serializing inst
system.switch_cpus.rename.serializingInsts         1739                       # count of serializing insts renamed
system.switch_cpus.rename.skidInsts          93845718                       # count of insts added to the skid buffer
system.switch_cpus.rename.tempSerializingInsts         2148                       # count of temporary serializing insts renamed
system.switch_cpus.rob.rob_reads           2928186542                       # The number of ROB reads
system.switch_cpus.rob.rob_writes          2564884481                       # The number of ROB writes
system.switch_cpus.timesIdled                 4352160                       # Number of times that the entire CPU went into an idle state and unscheduled itself
system.tol2bus.snoop_filter.hit_multi_requests       316540                       # Number of requests hitting in the snoop filter with multiple (>1) holders of the requested data.
system.tol2bus.snoop_filter.hit_multi_snoops        33051                       # Number of snoops hitting in the snoop filter with multiple (>1) holders of the requested data.
system.tol2bus.snoop_filter.hit_single_requests     17707359                       # Number of requests hitting in the snoop filter with a single holder of the requested data.
system.tol2bus.snoop_filter.hit_single_snoops      1381329                       # Number of snoops hitting in the snoop filter with a single holder of the requested data.
system.tol2bus.snoop_filter.tot_requests     35051655                       # Total number of requests made to the snoop filter.
system.tol2bus.snoop_filter.tot_snoops        1414380                       # Total number of snoops made to the snoop filter.
system.membus.pwrStateResidencyTicks::UNDEFINED 2128617196000                       # Cumulative time (in ticks) in various power states
system.membus.trans_dist::ReadResp            9768268                       # Transaction distribution
system.membus.trans_dist::WritebackDirty       525530                       # Transaction distribution
system.membus.trans_dist::CleanEvict          9540525                       # Transaction distribution
system.membus.trans_dist::UpgradeReq             5007                       # Transaction distribution
system.membus.trans_dist::ReadExReq            303180                       # Transaction distribution
system.membus.trans_dist::ReadExResp           303180                       # Transaction distribution
system.membus.trans_dist::ReadSharedReq       9768268                       # Transaction distribution
system.membus.pkt_count_system.l2.mem_side::system.mem_ctrls.port     30213958                       # Packet count per connected master and slave (bytes)
system.membus.pkt_count_system.l2.mem_side::total     30213958                       # Packet count per connected master and slave (bytes)
system.membus.pkt_count::total               30213958                       # Packet count per connected master and slave (bytes)
system.membus.pkt_size_system.l2.mem_side::system.mem_ctrls.port    678206592                       # Cumulative packet size per connected master and slave (bytes)
system.membus.pkt_size_system.l2.mem_side::total    678206592                       # Cumulative packet size per connected master and slave (bytes)
system.membus.pkt_size::total               678206592                       # Cumulative packet size per connected master and slave (bytes)
system.membus.snoops                                0                       # Total snoops (count)
system.membus.snoopTraffic                          0                       # Total snoop traffic (bytes)
system.membus.snoop_fanout::samples          10076455                       # Request fanout histogram
system.membus.snoop_fanout::mean                    0                       # Request fanout histogram
system.membus.snoop_fanout::stdev                   0                       # Request fanout histogram
system.membus.snoop_fanout::underflows              0      0.00%      0.00% # Request fanout histogram
system.membus.snoop_fanout::0                10076455    100.00%    100.00% # Request fanout histogram
system.membus.snoop_fanout::1                       0      0.00%    100.00% # Request fanout histogram
system.membus.snoop_fanout::overflows               0      0.00%    100.00% # Request fanout histogram
system.membus.snoop_fanout::min_value               0                       # Request fanout histogram
system.membus.snoop_fanout::max_value               0                       # Request fanout histogram
system.membus.snoop_fanout::total            10076455                       # Request fanout histogram
system.membus.reqLayer2.occupancy         24385764669                       # Layer occupancy (ticks)
system.membus.reqLayer2.utilization               2.4                       # Layer utilization (%)
system.membus.respLayer1.occupancy        53706993610                       # Layer occupancy (ticks)
system.membus.respLayer1.utilization              5.2                       # Layer utilization (%)
system.switch_cpus.pwrStateResidencyTicks::OFF 2128617196000                       # Cumulative time (in ticks) in various power states
system.switch_cpus.dtb.walker.pwrStateResidencyTicks::UNDEFINED 2128617196000                       # Cumulative time (in ticks) in various power states
system.switch_cpus.itb.walker.pwrStateResidencyTicks::UNDEFINED 2128617196000                       # Cumulative time (in ticks) in various power states
system.tol2bus.pwrStateResidencyTicks::UNDEFINED 2128617196000                       # Cumulative time (in ticks) in various power states
system.tol2bus.trans_dist::ReadResp          15657496                       # Transaction distribution
system.tol2bus.trans_dist::WritebackDirty      1851721                       # Transaction distribution
system.tol2bus.trans_dist::WritebackClean      5523959                       # Transaction distribution
system.tol2bus.trans_dist::CleanEvict        19905565                       # Transaction distribution
system.tol2bus.trans_dist::UpgradeReq           27858                       # Transaction distribution
system.tol2bus.trans_dist::UpgradeResp          27858                       # Transaction distribution
system.tol2bus.trans_dist::ReadExReq           550097                       # Transaction distribution
system.tol2bus.trans_dist::ReadExResp          550097                       # Transaction distribution
system.tol2bus.trans_dist::ReadCleanReq       5550715                       # Transaction distribution
system.tol2bus.trans_dist::ReadSharedReq     10106781                       # Transaction distribution
system.tol2bus.pkt_count_system.cpu.icache.mem_side::system.l2.cpu_side     16598971                       # Packet count per connected master and slave (bytes)
system.tol2bus.pkt_count_system.cpu.dcache.mem_side::system.l2.cpu_side     32026350                       # Packet count per connected master and slave (bytes)
system.tol2bus.pkt_count::total              48625321                       # Packet count per connected master and slave (bytes)
system.tol2bus.pkt_size_system.cpu.icache.mem_side::system.l2.cpu_side    707088384                       # Cumulative packet size per connected master and slave (bytes)
system.tol2bus.pkt_size_system.cpu.dcache.mem_side::system.l2.cpu_side    766916416                       # Cumulative packet size per connected master and slave (bytes)
system.tol2bus.pkt_size::total             1474004800                       # Cumulative packet size per connected master and slave (bytes)
system.tol2bus.snoops                        11126826                       # Total snoops (count)
system.tol2bus.snoopTraffic                  35324672                       # Total snoop traffic (bytes)
system.tol2bus.snoop_fanout::samples         28451872                       # Request fanout histogram
system.tol2bus.snoop_fanout::mean            0.062136                       # Request fanout histogram
system.tol2bus.snoop_fanout::stdev           0.246167                       # Request fanout histogram
system.tol2bus.snoop_fanout::underflows             0      0.00%      0.00% # Request fanout histogram
system.tol2bus.snoop_fanout::0               26717045     93.90%     93.90% # Request fanout histogram
system.tol2bus.snoop_fanout::1                1701776      5.98%     99.88% # Request fanout histogram
system.tol2bus.snoop_fanout::2                  33051      0.12%    100.00% # Request fanout histogram
system.tol2bus.snoop_fanout::3                      0      0.00%    100.00% # Request fanout histogram
system.tol2bus.snoop_fanout::4                      0      0.00%    100.00% # Request fanout histogram
system.tol2bus.snoop_fanout::overflows              0      0.00%    100.00% # Request fanout histogram
system.tol2bus.snoop_fanout::min_value              0                       # Request fanout histogram
system.tol2bus.snoop_fanout::max_value              2                       # Request fanout histogram
system.tol2bus.snoop_fanout::total           28451872                       # Request fanout histogram
system.tol2bus.reqLayer0.occupancy        25673098218                       # Layer occupancy (ticks)
system.tol2bus.reqLayer0.utilization              2.5                       # Layer utilization (%)
system.tol2bus.respLayer1.occupancy       16002963051                       # Layer occupancy (ticks)
system.tol2bus.respLayer1.utilization             1.6                       # Layer utilization (%)
system.tol2bus.respLayer0.occupancy        8331011512                       # Layer occupancy (ticks)
system.tol2bus.respLayer0.utilization             0.8                       # Layer utilization (%)
system.voltage_domain.voltage                       1                       # Voltage in Volts
system.clk_domain.clock                          1000                       # Clock period in ticks
system.l2.pwrStateResidencyTicks::UNDEFINED 2128617196000                       # Cumulative time (in ticks) in various power states
system.l2.demand_hits::.switch_cpus.inst      4194299                       # number of demand (read+write) hits
system.l2.demand_hits::.switch_cpus.data      1915035                       # number of demand (read+write) hits
system.l2.demand_hits::total                  6109334                       # number of demand (read+write) hits
system.l2.overall_hits::.switch_cpus.inst      4194299                       # number of overall hits
system.l2.overall_hits::.switch_cpus.data      1915035                       # number of overall hits
system.l2.overall_hits::total                 6109334                       # number of overall hits
system.l2.demand_misses::.switch_cpus.inst      1329998                       # number of demand (read+write) misses
system.l2.demand_misses::.switch_cpus.data      8741843                       # number of demand (read+write) misses
system.l2.demand_misses::total               10071841                       # number of demand (read+write) misses
system.l2.overall_misses::.switch_cpus.inst      1329998                       # number of overall misses
system.l2.overall_misses::.switch_cpus.data      8741843                       # number of overall misses
system.l2.overall_misses::total              10071841                       # number of overall misses
system.l2.demand_miss_latency::.switch_cpus.inst 107680518905                       # number of demand (read+write) miss cycles
system.l2.demand_miss_latency::.switch_cpus.data 671580603002                       # number of demand (read+write) miss cycles
system.l2.demand_miss_latency::total     779261121907                       # number of demand (read+write) miss cycles
system.l2.overall_miss_latency::.switch_cpus.inst 107680518905                       # number of overall miss cycles
system.l2.overall_miss_latency::.switch_cpus.data 671580603002                       # number of overall miss cycles
system.l2.overall_miss_latency::total    779261121907                       # number of overall miss cycles
system.l2.demand_accesses::.switch_cpus.inst      5524297                       # number of demand (read+write) accesses
system.l2.demand_accesses::.switch_cpus.data     10656878                       # number of demand (read+write) accesses
system.l2.demand_accesses::total             16181175                       # number of demand (read+write) accesses
system.l2.overall_accesses::.switch_cpus.inst      5524297                       # number of overall (read+write) accesses
system.l2.overall_accesses::.switch_cpus.data     10656878                       # number of overall (read+write) accesses
system.l2.overall_accesses::total            16181175                       # number of overall (read+write) accesses
system.l2.demand_miss_rate::.switch_cpus.inst     0.240754                       # miss rate for demand accesses
system.l2.demand_miss_rate::.switch_cpus.data     0.820301                       # miss rate for demand accesses
system.l2.demand_miss_rate::total            0.622442                       # miss rate for demand accesses
system.l2.overall_miss_rate::.switch_cpus.inst     0.240754                       # miss rate for overall accesses
system.l2.overall_miss_rate::.switch_cpus.data     0.820301                       # miss rate for overall accesses
system.l2.overall_miss_rate::total           0.622442                       # miss rate for overall accesses
system.l2.demand_avg_miss_latency::.switch_cpus.inst 80962.917918                       # average overall miss latency
system.l2.demand_avg_miss_latency::.switch_cpus.data 76823.686150                       # average overall miss latency
system.l2.demand_avg_miss_latency::total 77370.276388                       # average overall miss latency
system.l2.overall_avg_miss_latency::.switch_cpus.inst 80962.917918                       # average overall miss latency
system.l2.overall_avg_miss_latency::.switch_cpus.data 76823.686150                       # average overall miss latency
system.l2.overall_avg_miss_latency::total 77370.276388                       # average overall miss latency
system.l2.blocked_cycles::no_mshrs         1356032518                       # number of cycles access was blocked
system.l2.blocked_cycles::no_targets                0                       # number of cycles access was blocked
system.l2.blocked::no_mshrs                  10076455                       # number of cycles access was blocked
system.l2.blocked::no_targets                       0                       # number of cycles access was blocked
system.l2.avg_blocked_cycles::no_mshrs     134.574364                       # average number of cycles each access was blocked
system.l2.avg_blocked_cycles::no_targets          nan                       # average number of cycles each access was blocked
system.l2.writebacks::.writebacks              525530                       # number of writebacks
system.l2.writebacks::total                    525530                       # number of writebacks
system.l2.demand_mshr_misses::.switch_cpus.inst      1329998                       # number of demand (read+write) MSHR misses
system.l2.demand_mshr_misses::.switch_cpus.data      8741843                       # number of demand (read+write) MSHR misses
system.l2.demand_mshr_misses::total          10071841                       # number of demand (read+write) MSHR misses
system.l2.overall_mshr_misses::.switch_cpus.inst      1329998                       # number of overall MSHR misses
system.l2.overall_mshr_misses::.switch_cpus.data      8741843                       # number of overall MSHR misses
system.l2.overall_mshr_misses::total         10071841                       # number of overall MSHR misses
system.l2.demand_mshr_miss_latency::.switch_cpus.inst  94380538905                       # number of demand (read+write) MSHR miss cycles
system.l2.demand_mshr_miss_latency::.switch_cpus.data 584162168012                       # number of demand (read+write) MSHR miss cycles
system.l2.demand_mshr_miss_latency::total 678542706917                       # number of demand (read+write) MSHR miss cycles
system.l2.overall_mshr_miss_latency::.switch_cpus.inst  94380538905                       # number of overall MSHR miss cycles
system.l2.overall_mshr_miss_latency::.switch_cpus.data 584162168012                       # number of overall MSHR miss cycles
system.l2.overall_mshr_miss_latency::total 678542706917                       # number of overall MSHR miss cycles
system.l2.demand_mshr_miss_rate::.switch_cpus.inst     0.240754                       # mshr miss rate for demand accesses
system.l2.demand_mshr_miss_rate::.switch_cpus.data     0.820301                       # mshr miss rate for demand accesses
system.l2.demand_mshr_miss_rate::total       0.622442                       # mshr miss rate for demand accesses
system.l2.overall_mshr_miss_rate::.switch_cpus.inst     0.240754                       # mshr miss rate for overall accesses
system.l2.overall_mshr_miss_rate::.switch_cpus.data     0.820301                       # mshr miss rate for overall accesses
system.l2.overall_mshr_miss_rate::total      0.622442                       # mshr miss rate for overall accesses
system.l2.demand_avg_mshr_miss_latency::.switch_cpus.inst 70962.917918                       # average overall mshr miss latency
system.l2.demand_avg_mshr_miss_latency::.switch_cpus.data 66823.685579                       # average overall mshr miss latency
system.l2.demand_avg_mshr_miss_latency::total 67370.275893                       # average overall mshr miss latency
system.l2.overall_avg_mshr_miss_latency::.switch_cpus.inst 70962.917918                       # average overall mshr miss latency
system.l2.overall_avg_mshr_miss_latency::.switch_cpus.data 66823.685579                       # average overall mshr miss latency
system.l2.overall_avg_mshr_miss_latency::total 67370.275893                       # average overall mshr miss latency
system.l2.replacements                       11100408                       # number of replacements
system.l2.WritebackDirty_hits::.writebacks      1326191                       # number of WritebackDirty hits
system.l2.WritebackDirty_hits::total          1326191                       # number of WritebackDirty hits
system.l2.WritebackDirty_accesses::.writebacks      1326191                       # number of WritebackDirty accesses(hits+misses)
system.l2.WritebackDirty_accesses::total      1326191                       # number of WritebackDirty accesses(hits+misses)
system.l2.WritebackClean_hits::.writebacks      5502923                       # number of WritebackClean hits
system.l2.WritebackClean_hits::total          5502923                       # number of WritebackClean hits
system.l2.WritebackClean_accesses::.writebacks      5502923                       # number of WritebackClean accesses(hits+misses)
system.l2.WritebackClean_accesses::total      5502923                       # number of WritebackClean accesses(hits+misses)
system.l2.CleanEvict_mshr_misses::.writebacks       311345                       # number of CleanEvict MSHR misses
system.l2.CleanEvict_mshr_misses::total        311345                       # number of CleanEvict MSHR misses
system.l2.CleanEvict_mshr_miss_rate::.writebacks          inf                       # mshr miss rate for CleanEvict accesses
system.l2.CleanEvict_mshr_miss_rate::total          inf                       # mshr miss rate for CleanEvict accesses
system.l2.UpgradeReq_hits::.switch_cpus.data        23244                       # number of UpgradeReq hits
system.l2.UpgradeReq_hits::total                23244                       # number of UpgradeReq hits
system.l2.UpgradeReq_misses::.switch_cpus.data         4614                       # number of UpgradeReq misses
system.l2.UpgradeReq_misses::total               4614                       # number of UpgradeReq misses
system.l2.UpgradeReq_miss_latency::.switch_cpus.data     31171427                       # number of UpgradeReq miss cycles
system.l2.UpgradeReq_miss_latency::total     31171427                       # number of UpgradeReq miss cycles
system.l2.UpgradeReq_accesses::.switch_cpus.data        27858                       # number of UpgradeReq accesses(hits+misses)
system.l2.UpgradeReq_accesses::total            27858                       # number of UpgradeReq accesses(hits+misses)
system.l2.UpgradeReq_miss_rate::.switch_cpus.data     0.165626                       # miss rate for UpgradeReq accesses
system.l2.UpgradeReq_miss_rate::total        0.165626                       # miss rate for UpgradeReq accesses
system.l2.UpgradeReq_avg_miss_latency::.switch_cpus.data  6755.835934                       # average UpgradeReq miss latency
system.l2.UpgradeReq_avg_miss_latency::total  6755.835934                       # average UpgradeReq miss latency
system.l2.UpgradeReq_mshr_misses::.switch_cpus.data         4614                       # number of UpgradeReq MSHR misses
system.l2.UpgradeReq_mshr_misses::total          4614                       # number of UpgradeReq MSHR misses
system.l2.UpgradeReq_mshr_miss_latency::.switch_cpus.data     94439000                       # number of UpgradeReq MSHR miss cycles
system.l2.UpgradeReq_mshr_miss_latency::total     94439000                       # number of UpgradeReq MSHR miss cycles
system.l2.UpgradeReq_mshr_miss_rate::.switch_cpus.data     0.165626                       # mshr miss rate for UpgradeReq accesses
system.l2.UpgradeReq_mshr_miss_rate::total     0.165626                       # mshr miss rate for UpgradeReq accesses
system.l2.UpgradeReq_avg_mshr_miss_latency::.switch_cpus.data 20467.923710                       # average UpgradeReq mshr miss latency
system.l2.UpgradeReq_avg_mshr_miss_latency::total 20467.923710                       # average UpgradeReq mshr miss latency
system.l2.ReadExReq_hits::.switch_cpus.data       246524                       # number of ReadExReq hits
system.l2.ReadExReq_hits::total                246524                       # number of ReadExReq hits
system.l2.ReadExReq_misses::.switch_cpus.data       303573                       # number of ReadExReq misses
system.l2.ReadExReq_misses::total              303573                       # number of ReadExReq misses
system.l2.ReadExReq_miss_latency::.switch_cpus.data  23872520737                       # number of ReadExReq miss cycles
system.l2.ReadExReq_miss_latency::total   23872520737                       # number of ReadExReq miss cycles
system.l2.ReadExReq_accesses::.switch_cpus.data       550097                       # number of ReadExReq accesses(hits+misses)
system.l2.ReadExReq_accesses::total            550097                       # number of ReadExReq accesses(hits+misses)
system.l2.ReadExReq_miss_rate::.switch_cpus.data     0.551854                       # miss rate for ReadExReq accesses
system.l2.ReadExReq_miss_rate::total         0.551854                       # miss rate for ReadExReq accesses
system.l2.ReadExReq_avg_miss_latency::.switch_cpus.data 78638.484770                       # average ReadExReq miss latency
system.l2.ReadExReq_avg_miss_latency::total 78638.484770                       # average ReadExReq miss latency
system.l2.ReadExReq_mshr_misses::.switch_cpus.data       303573                       # number of ReadExReq MSHR misses
system.l2.ReadExReq_mshr_misses::total         303573                       # number of ReadExReq MSHR misses
system.l2.ReadExReq_mshr_miss_latency::.switch_cpus.data  20836785747                       # number of ReadExReq MSHR miss cycles
system.l2.ReadExReq_mshr_miss_latency::total  20836785747                       # number of ReadExReq MSHR miss cycles
system.l2.ReadExReq_mshr_miss_rate::.switch_cpus.data     0.551854                       # mshr miss rate for ReadExReq accesses
system.l2.ReadExReq_mshr_miss_rate::total     0.551854                       # mshr miss rate for ReadExReq accesses
system.l2.ReadExReq_avg_mshr_miss_latency::.switch_cpus.data 68638.468332                       # average ReadExReq mshr miss latency
system.l2.ReadExReq_avg_mshr_miss_latency::total 68638.468332                       # average ReadExReq mshr miss latency
system.l2.ReadCleanReq_hits::.switch_cpus.inst      4194299                       # number of ReadCleanReq hits
system.l2.ReadCleanReq_hits::total            4194299                       # number of ReadCleanReq hits
system.l2.ReadCleanReq_misses::.switch_cpus.inst      1329998                       # number of ReadCleanReq misses
system.l2.ReadCleanReq_misses::total          1329998                       # number of ReadCleanReq misses
system.l2.ReadCleanReq_miss_latency::.switch_cpus.inst 107680518905                       # number of ReadCleanReq miss cycles
[...]
system.cpu.itb_walker_cache.tags.warmup_cycle            0                       # Cycle when the warmup percentage was hit.
system.cpu.itb_walker_cache.tags.tag_accesses            0                       # Number of tag accesses
system.cpu.itb_walker_cache.tags.data_accesses            0                       # Number of data accesses
system.cpu.itb.walker.pwrStateResidencyTicks::UNDEFINED 2128617196000                       # Cumulative time (in ticks) in various power states
system.cpu.dtb_walker_cache.pwrStateResidencyTicks::UNDEFINED 2128617196000                       # Cumulative time (in ticks) in various power states
system.cpu.dtb_walker_cache.blocked_cycles::no_mshrs            0                       # number of cycles access was blocked
system.cpu.dtb_walker_cache.blocked_cycles::no_targets            0                       # number of cycles access was blocked
system.cpu.dtb_walker_cache.blocked::no_mshrs            0                       # number of cycles access was blocked
system.cpu.dtb_walker_cache.blocked::no_targets            0                       # number of cycles access was blocked
system.cpu.dtb_walker_cache.avg_blocked_cycles::no_mshrs          nan                       # average number of cycles each access was blocked
system.cpu.dtb_walker_cache.avg_blocked_cycles::no_targets          nan                       # average number of cycles each access was blocked
system.cpu.dtb_walker_cache.replacements            0                       # number of replacements
system.cpu.dtb_walker_cache.tags.pwrStateResidencyTicks::UNDEFINED 2128617196000                       # Cumulative time (in ticks) in various power states
system.cpu.dtb_walker_cache.tags.tagsinuse            0                       # Cycle average of tags in use
system.cpu.dtb_walker_cache.tags.total_refs            0                       # Total number of references to valid blocks.
system.cpu.dtb_walker_cache.tags.sampled_refs            0                       # Sample count of references to valid blocks.
system.cpu.dtb_walker_cache.tags.avg_refs          nan                       # Average number of references to valid blocks.
system.cpu.dtb_walker_cache.tags.warmup_cycle            0                       # Cycle when the warmup percentage was hit.
system.cpu.dtb_walker_cache.tags.tag_accesses            0                       # Number of tag accesses
system.cpu.dtb_walker_cache.tags.data_accesses            0                       # Number of data accesses
system.cpu.dcache.pwrStateResidencyTicks::UNDEFINED 2128617196000                       # Cumulative time (in ticks) in various power states
system.cpu.dcache.demand_hits::.cpu.data    365980450                       # number of demand (read+write) hits
system.cpu.dcache.demand_hits::.switch_cpus.data    186652530                       # number of demand (read+write) hits
system.cpu.dcache.demand_hits::total        552632980                       # number of demand (read+write) hits
system.cpu.dcache.overall_hits::.cpu.data    366243289                       # number of overall hits
system.cpu.dcache.overall_hits::.switch_cpus.data    187803660                       # number of overall hits
system.cpu.dcache.overall_hits::total       554046949                       # number of overall hits
system.cpu.dcache.demand_misses::.cpu.data     18856491                       # number of demand (read+write) misses
system.cpu.dcache.demand_misses::.switch_cpus.data     10666896                       # number of demand (read+write) misses
system.cpu.dcache.demand_misses::total       29523387                       # number of demand (read+write) misses
system.cpu.dcache.overall_misses::.cpu.data     18880258                       # number of overall misses
system.cpu.dcache.overall_misses::.switch_cpus.data     10684736                       # number of overall misses
system.cpu.dcache.overall_misses::total      29564994                       # number of overall misses
system.cpu.dcache.demand_miss_latency::.switch_cpus.data 752002007664                       # number of demand (read+write) miss cycles
system.cpu.dcache.demand_miss_latency::total 752002007664                       # number of demand (read+write) miss cycles
system.cpu.dcache.overall_miss_latency::.switch_cpus.data 752002007664                       # number of overall miss cycles
system.cpu.dcache.overall_miss_latency::total 752002007664                       # number of overall miss cycles
system.cpu.dcache.demand_accesses::.cpu.data    384836941                       # number of demand (read+write) accesses
system.cpu.dcache.demand_accesses::.switch_cpus.data    197319426                       # number of demand (read+write) accesses
system.cpu.dcache.demand_accesses::total    582156367                       # number of demand (read+write) accesses
system.cpu.dcache.overall_accesses::.cpu.data    385123547                       # number of overall (read+write) accesses
system.cpu.dcache.overall_accesses::.switch_cpus.data    198488396                       # number of overall (read+write) accesses
system.cpu.dcache.overall_accesses::total    583611943                       # number of overall (read+write) accesses
system.cpu.dcache.demand_miss_rate::.cpu.data     0.048999                       # miss rate for demand accesses
system.cpu.dcache.demand_miss_rate::.switch_cpus.data     0.054059                       # miss rate for demand accesses
system.cpu.dcache.demand_miss_rate::total     0.050714                       # miss rate for demand accesses
system.cpu.dcache.overall_miss_rate::.cpu.data     0.049024                       # miss rate for overall accesses
system.cpu.dcache.overall_miss_rate::.switch_cpus.data     0.053831                       # miss rate for overall accesses
system.cpu.dcache.overall_miss_rate::total     0.050659                       # miss rate for overall accesses
system.cpu.dcache.demand_avg_miss_latency::.switch_cpus.data 70498.672497                       # average overall miss latency
system.cpu.dcache.demand_avg_miss_latency::total 25471.400272                       # average overall miss latency
system.cpu.dcache.overall_avg_miss_latency::.switch_cpus.data 70380.962867                       # average overall miss latency
system.cpu.dcache.overall_avg_miss_latency::total 25435.554212                       # average overall miss latency
system.cpu.dcache.blocked_cycles::no_mshrs   1484661770                       # number of cycles access was blocked
system.cpu.dcache.blocked_cycles::no_targets            0                       # number of cycles access was blocked
system.cpu.dcache.blocked::no_mshrs          10684736                       # number of cycles access was blocked
system.cpu.dcache.blocked::no_targets               0                       # number of cycles access was blocked
system.cpu.dcache.avg_blocked_cycles::no_mshrs   138.951657                       # average number of cycles each access was blocked
system.cpu.dcache.avg_blocked_cycles::no_targets          nan                       # average number of cycles each access was blocked
system.cpu.dcache.writebacks::.writebacks      4374348                       # number of writebacks
system.cpu.dcache.writebacks::total           4374348                       # number of writebacks
system.cpu.dcache.demand_mshr_misses::.switch_cpus.data     10666896                       # number of demand (read+write) MSHR misses
system.cpu.dcache.demand_mshr_misses::total     10666896                       # number of demand (read+write) MSHR misses
system.cpu.dcache.overall_mshr_misses::.switch_cpus.data     10684736                       # number of overall MSHR misses
system.cpu.dcache.overall_mshr_misses::total     10684736                       # number of overall MSHR misses
system.cpu.dcache.demand_mshr_miss_latency::.switch_cpus.data 741335111664                       # number of demand (read+write) MSHR miss cycles
system.cpu.dcache.demand_mshr_miss_latency::total 741335111664                       # number of demand (read+write) MSHR miss cycles
system.cpu.dcache.overall_mshr_miss_latency::.switch_cpus.data 742351209164                       # number of overall MSHR miss cycles
system.cpu.dcache.overall_mshr_miss_latency::total 742351209164                       # number of overall MSHR miss cycles
system.cpu.dcache.demand_mshr_miss_rate::.switch_cpus.data     0.054059                       # mshr miss rate for demand accesses
system.cpu.dcache.demand_mshr_miss_rate::total     0.018323                       # mshr miss rate for demand accesses
system.cpu.dcache.overall_mshr_miss_rate::.switch_cpus.data     0.053831                       # mshr miss rate for overall accesses
system.cpu.dcache.overall_mshr_miss_rate::total     0.018308                       # mshr miss rate for overall accesses
system.cpu.dcache.demand_avg_mshr_miss_latency::.switch_cpus.data 69498.672497                       # average overall mshr miss latency
system.cpu.dcache.demand_avg_mshr_miss_latency::total 69498.672497                       # average overall mshr miss latency
system.cpu.dcache.overall_avg_mshr_miss_latency::.switch_cpus.data 69477.730584                       # average overall mshr miss latency
system.cpu.dcache.overall_avg_mshr_miss_latency::total 69477.730584                       # average overall mshr miss latency
system.cpu.dcache.replacements               29536624                       # number of replacements
system.cpu.dcache.ReadReq_hits::.cpu.data    272114231                       # number of ReadReq hits
system.cpu.dcache.ReadReq_hits::.switch_cpus.data    143865412                       # number of ReadReq hits
system.cpu.dcache.ReadReq_hits::total       415979643                       # number of ReadReq hits
system.cpu.dcache.ReadReq_misses::.cpu.data     17499738                       # number of ReadReq misses
system.cpu.dcache.ReadReq_misses::.switch_cpus.data     10088941                       # number of ReadReq misses
system.cpu.dcache.ReadReq_misses::total      27588679                       # number of ReadReq misses
system.cpu.dcache.ReadReq_miss_latency::.switch_cpus.data 718155587000                       # number of ReadReq miss cycles
system.cpu.dcache.ReadReq_miss_latency::total 718155587000                       # number of ReadReq miss cycles
system.cpu.dcache.ReadReq_accesses::.cpu.data    289613969                       # number of ReadReq accesses(hits+misses)
system.cpu.dcache.ReadReq_accesses::.switch_cpus.data    153954353                       # number of ReadReq accesses(hits+misses)
system.cpu.dcache.ReadReq_accesses::total    443568322                       # number of ReadReq accesses(hits+misses)
system.cpu.dcache.ReadReq_miss_rate::.cpu.data     0.060424                       # miss rate for ReadReq accesses
system.cpu.dcache.ReadReq_miss_rate::.switch_cpus.data     0.065532                       # miss rate for ReadReq accesses
system.cpu.dcache.ReadReq_miss_rate::total     0.062197                       # miss rate for ReadReq accesses
system.cpu.dcache.ReadReq_avg_miss_latency::.switch_cpus.data 71182.454829                       # average ReadReq miss latency
system.cpu.dcache.ReadReq_avg_miss_latency::total 26030.807310                       # average ReadReq miss latency
system.cpu.dcache.ReadReq_mshr_misses::.switch_cpus.data     10088941                       # number of ReadReq MSHR misses
system.cpu.dcache.ReadReq_mshr_misses::total     10088941                       # number of ReadReq MSHR misses
system.cpu.dcache.ReadReq_mshr_miss_latency::.switch_cpus.data 708066646000                       # number of ReadReq MSHR miss cycles
system.cpu.dcache.ReadReq_mshr_miss_latency::total 708066646000                       # number of ReadReq MSHR miss cycles
system.cpu.dcache.ReadReq_mshr_miss_rate::.switch_cpus.data     0.065532                       # mshr miss rate for ReadReq accesses
system.cpu.dcache.ReadReq_mshr_miss_rate::total     0.022745                       # mshr miss rate for ReadReq accesses
system.cpu.dcache.ReadReq_avg_mshr_miss_latency::.switch_cpus.data 70182.454829                       # average ReadReq mshr miss latency
system.cpu.dcache.ReadReq_avg_mshr_miss_latency::total 70182.454829                       # average ReadReq mshr miss latency
system.cpu.dcache.WriteReq_hits::.cpu.data     93866219                       # number of WriteReq hits
system.cpu.dcache.WriteReq_hits::.switch_cpus.data     42787118                       # number of WriteReq hits
system.cpu.dcache.WriteReq_hits::total      136653337                       # number of WriteReq hits
system.cpu.dcache.WriteReq_misses::.cpu.data      1356753                       # number of WriteReq misses
system.cpu.dcache.WriteReq_misses::.switch_cpus.data       577955                       # number of WriteReq misses
system.cpu.dcache.WriteReq_misses::total      1934708                       # number of WriteReq misses
system.cpu.dcache.WriteReq_miss_latency::.switch_cpus.data  33846420664                       # number of WriteReq miss cycles
system.cpu.dcache.WriteReq_miss_latency::total  33846420664                       # number of WriteReq miss cycles
system.cpu.dcache.WriteReq_accesses::.cpu.data     95222972                       # number of WriteReq accesses(hits+misses)
system.cpu.dcache.WriteReq_accesses::.switch_cpus.data     43365073                       # number of WriteReq accesses(hits+misses)
system.cpu.dcache.WriteReq_accesses::total    138588045                       # number of WriteReq accesses(hits+misses)
system.cpu.dcache.WriteReq_miss_rate::.cpu.data     0.014248                       # miss rate for WriteReq accesses
system.cpu.dcache.WriteReq_miss_rate::.switch_cpus.data     0.013328                       # miss rate for WriteReq accesses
system.cpu.dcache.WriteReq_miss_rate::total     0.013960                       # miss rate for WriteReq accesses
system.cpu.dcache.WriteReq_avg_miss_latency::.switch_cpus.data 58562.380573                       # average WriteReq miss latency
system.cpu.dcache.WriteReq_avg_miss_latency::total 17494.330237                       # average WriteReq miss latency
system.cpu.dcache.WriteReq_mshr_misses::.switch_cpus.data       577955                       # number of WriteReq MSHR misses
system.cpu.dcache.WriteReq_mshr_misses::total       577955                       # number of WriteReq MSHR misses
system.cpu.dcache.WriteReq_mshr_miss_latency::.switch_cpus.data  33268465664                       # number of WriteReq MSHR miss cycles
system.cpu.dcache.WriteReq_mshr_miss_latency::total  33268465664                       # number of WriteReq MSHR miss cycles
system.cpu.dcache.WriteReq_mshr_miss_rate::.switch_cpus.data     0.013328                       # mshr miss rate for WriteReq accesses
system.cpu.dcache.WriteReq_mshr_miss_rate::total     0.004170                       # mshr miss rate for WriteReq accesses
system.cpu.dcache.WriteReq_avg_mshr_miss_latency::.switch_cpus.data 57562.380573                       # average WriteReq mshr miss latency
system.cpu.dcache.WriteReq_avg_mshr_miss_latency::total 57562.380573                       # average WriteReq mshr miss latency
system.cpu.dcache.SoftPFReq_hits::.cpu.data       262839                       # number of SoftPFReq hits
system.cpu.dcache.SoftPFReq_hits::.switch_cpus.data      1151130                       # number of SoftPFReq hits
system.cpu.dcache.SoftPFReq_hits::total       1413969                       # number of SoftPFReq hits
system.cpu.dcache.SoftPFReq_misses::.cpu.data        23767                       # number of SoftPFReq misses
system.cpu.dcache.SoftPFReq_misses::.switch_cpus.data        17840                       # number of SoftPFReq misses
system.cpu.dcache.SoftPFReq_misses::total        41607                       # number of SoftPFReq misses
system.cpu.dcache.SoftPFReq_accesses::.cpu.data       286606                       # number of SoftPFReq accesses(hits+misses)
system.cpu.dcache.SoftPFReq_accesses::.switch_cpus.data      1168970                       # number of SoftPFReq accesses(hits+misses)
system.cpu.dcache.SoftPFReq_accesses::total      1455576                       # number of SoftPFReq accesses(hits+misses)
system.cpu.dcache.SoftPFReq_miss_rate::.cpu.data     0.082926                       # miss rate for SoftPFReq accesses
system.cpu.dcache.SoftPFReq_miss_rate::.switch_cpus.data     0.015261                       # miss rate for SoftPFReq accesses
system.cpu.dcache.SoftPFReq_miss_rate::total     0.028585                       # miss rate for SoftPFReq accesses
system.cpu.dcache.SoftPFReq_mshr_misses::.switch_cpus.data        17840                       # number of SoftPFReq MSHR misses
system.cpu.dcache.SoftPFReq_mshr_misses::total        17840                       # number of SoftPFReq MSHR misses
system.cpu.dcache.SoftPFReq_mshr_miss_latency::.switch_cpus.data   1016097500                       # number of SoftPFReq MSHR miss cycles
system.cpu.dcache.SoftPFReq_mshr_miss_latency::total   1016097500                       # number of SoftPFReq MSHR miss cycles
system.cpu.dcache.SoftPFReq_mshr_miss_rate::.switch_cpus.data     0.015261                       # mshr miss rate for SoftPFReq accesses
system.cpu.dcache.SoftPFReq_mshr_miss_rate::total     0.012256                       # mshr miss rate for SoftPFReq accesses
system.cpu.dcache.SoftPFReq_avg_mshr_miss_latency::.switch_cpus.data 56956.137892                       # average SoftPFReq mshr miss latency
system.cpu.dcache.SoftPFReq_avg_mshr_miss_latency::total 56956.137892                       # average SoftPFReq mshr miss latency
system.cpu.dcache.tags.pwrStateResidencyTicks::UNDEFINED 2128617196000                       # Cumulative time (in ticks) in various power states
system.cpu.dcache.tags.tagsinuse           511.995384                       # Cycle average of tags in use
system.cpu.dcache.tags.total_refs           583589543                       # Total number of references to valid blocks.
system.cpu.dcache.tags.sampled_refs          29536624                       # Sample count of references to valid blocks.
system.cpu.dcache.tags.avg_refs             19.758167                       # Average number of references to valid blocks.
system.cpu.dcache.tags.warmup_cycle              1000                       # Cycle when the warmup percentage was hit.
system.cpu.dcache.tags.occ_blocks::.cpu.data   264.135301                       # Average occupied blocks per requestor
system.cpu.dcache.tags.occ_blocks::.switch_cpus.data   247.860083                       # Average occupied blocks per requestor
system.cpu.dcache.tags.occ_percent::.cpu.data     0.515889                       # Average percentage of cache occupancy
system.cpu.dcache.tags.occ_percent::.switch_cpus.data     0.484102                       # Average percentage of cache occupancy
system.cpu.dcache.tags.occ_percent::total     0.999991                       # Average percentage of cache occupancy
system.cpu.dcache.tags.occ_task_id_blocks::1024          512                       # Occupied blocks per task id
system.cpu.dcache.tags.age_task_id_blocks_1024::0          116                       # Occupied blocks per task id
system.cpu.dcache.tags.age_task_id_blocks_1024::1          384                       # Occupied blocks per task id
system.cpu.dcache.tags.age_task_id_blocks_1024::2           12                       # Occupied blocks per task id
system.cpu.dcache.tags.occ_task_id_percent::1024            1                       # Percentage of cache occupancy per task id
system.cpu.dcache.tags.tag_accesses        2363984908                       # Number of tag accesses
system.cpu.dcache.tags.data_accesses       2363984908                       # Number of data accesses

---------- End Simulation Statistics   ----------
