
---------- Begin Simulation Statistics ----------
final_tick                               1755979734000                       # Number of ticks from beginning of simulation (restored from checkpoints and never reset)
host_inst_rate                                 220905                       # Simulator instruction rate (inst/s)
host_mem_usage                                4521848                       # Number of bytes of host memory used
host_op_rate                                   441438                       # Simulator op (including micro ops) rate (op/s)
host_seconds                                  6790.24                       # Real time elapsed on the host
host_tick_rate                               87136404                       # Simulator tick rate (ticks/s)
sim_freq                                 1000000000000                       # Frequency of simulated ticks
sim_insts                                  1500000001                       # Number of instructions simulated
sim_ops                                    2997465459                       # Number of ops (including micro ops) simulated
sim_seconds                                  0.591677                       # Number of seconds simulated
sim_ticks                                591676725500                       # Number of ticks simulated
system.cpu.committedInsts                           0                       # Number of instructions committed
system.cpu.committedOps                             0                       # Number of ops (including micro ops) committed
system.cpu.dtb.rdAccesses                           0                       # TLB accesses on read requests
system.cpu.dtb.rdMisses                             0                       # TLB misses on read requests
system.cpu.dtb.wrAccesses                           0                       # TLB accesses on write requests
system.cpu.dtb.wrMisses                             0                       # TLB misses on write requests
system.cpu.idle_fraction                            0                       # Percentage of idle cycles
system.cpu.itb.rdAccesses                           0                       # TLB accesses on read requests
system.cpu.itb.rdMisses                             0                       # TLB misses on read requests
system.cpu.itb.wrAccesses                           0                       # TLB accesses on write requests
system.cpu.itb.wrMisses                             0                       # TLB misses on write requests
system.cpu.not_idle_fraction                        1                       # Percentage of non-idle cycles
system.cpu.numCycles                                0                       # number of cpu cycles simulated
system.cpu.numWorkItemsCompleted                    0                       # number of work items this cpu completed
system.cpu.numWorkItemsStarted                      0                       # number of work items this cpu started
system.cpu.num_busy_cycles                          0                       # Number of busy cycles
system.cpu.num_conditional_control_insts            0                       # number of instructions that are conditional controls
system.cpu.num_fp_alu_accesses                      0                       # Number of float alu accesses
system.cpu.num_fp_insts                             0                       # number of float instructions
system.cpu.num_fp_register_reads                    0                       # number of times the floating registers were read
system.cpu.num_fp_register_writes                   0                       # number of times the floating registers were written
system.cpu.num_func_calls                           0                       # number of times a function call or return occured
system.cpu.num_idle_cycles                          0                       # Number of idle cycles
system.cpu.num_int_alu_accesses                     0                       # Number of integer alu accesses
system.cpu.num_int_insts                            0                       # number of integer instructions
system.cpu.num_int_register_reads                   0                       # number of times the integer registers were read
system.cpu.num_int_register_writes                  0                       # number of times the integer registers were written
system.cpu.num_load_insts                           0                       # Number of load instructions
system.cpu.num_mem_refs                             0                       # number of memory refs
system.cpu.num_store_insts                          0                       # Number of store instructions
system.cpu.num_vec_alu_accesses                     0                       # Number of vector alu accesses
system.cpu.num_vec_insts                            0                       # number of vector instructions
system.cpu.num_vec_register_reads                   0                       # number of times the vector registers were read
system.cpu.num_vec_register_writes                  0                       # number of times the vector registers were written
system.cpu.op_class::No_OpClass                     0                       # Class of executed instruction
system.cpu.op_class::IntAlu                         0                       # Class of executed instruction
system.cpu.op_class::IntMult                        0                       # Class of executed instruction
system.cpu.op_class::IntDiv                         0                       # Class of executed instruction
system.cpu.op_class::FloatAdd                       0                       # Class of executed instruction
system.cpu.op_class::FloatCmp                       0                       # Class of executed instruction
system.cpu.op_class::FloatCvt                       0                       # Class of executed instruction
system.cpu.op_class::FloatMult                      0                       # Class of executed instruction
system.cpu.op_class::FloatMultAcc                   0                       # Class of executed instruction
system.cpu.op_class::FloatDiv                       0                       # Class of executed instruction
system.cpu.op_class::FloatMisc                      0                       # Class of executed instruction
system.cpu.op_class::FloatSqrt                      0                       # Class of executed instruction
system.cpu.op_class::SimdAdd                        0                       # Class of executed instruction
system.cpu.op_class::SimdAddAcc                     0                       # Class of executed instruction
system.cpu.op_class::SimdAlu                        0                       # Class of executed instruction
system.cpu.op_class::SimdCmp                        0                       # Class of executed instruction
system.cpu.op_class::SimdCvt                        0                       # Class of executed instruction
system.cpu.op_class::SimdMisc                       0                       # Class of executed instruction
system.cpu.op_class::SimdMult                       0                       # Class of executed instruction
system.cpu.op_class::SimdMultAcc                    0                       # Class of executed instruction
system.cpu.op_class::SimdShift                      0                       # Class of executed instruction
system.cpu.op_class::SimdShiftAcc                   0                       # Class of executed instruction
system.cpu.op_class::SimdDiv                        0                       # Class of executed instruction
system.cpu.op_class::SimdSqrt                       0                       # Class of executed instruction
system.cpu.op_class::SimdFloatAdd                   0                       # Class of executed instruction
system.cpu.op_class::SimdFloatAlu                   0                       # Class of executed instruction
system.cpu.op_class::SimdFloatCmp                   0                       # Class of executed instruction
system.cpu.op_class::SimdFloatCvt                   0                       # Class of executed instruction
system.cpu.op_class::SimdFloatDiv                   0                       # Class of executed instruction
system.cpu.op_class::SimdFloatMisc                  0                       # Class of executed instruction
system.cpu.op_class::SimdFloatMult                  0                       # Class of executed instruction
system.cpu.op_class::SimdFloatMultAcc               0                       # Class of executed instruction
system.cpu.op_class::SimdFloatSqrt                  0                       # Class of executed instruction
system.cpu.op_class::SimdReduceAdd                  0                       # Class of executed instruction
system.cpu.op_class::SimdReduceAlu                  0                       # Class of executed instruction
system.cpu.op_class::SimdReduceCmp                  0                       # Class of executed instruction
system.cpu.op_class::SimdFloatReduceAdd             0                       # Class of executed instruction
system.cpu.op_class::SimdFloatReduceCmp             0                       # Class of executed instruction
system.cpu.op_class::SimdAes                        0                       # Class of executed instruction
system.cpu.op_class::SimdAesMix                     0                       # Class of executed instruction
system.cpu.op_class::SimdSha1Hash                   0                       # Class of executed instruction
system.cpu.op_class::SimdSha1Hash2                  0                       # Class of executed instruction
system.cpu.op_class::SimdSha256Hash                 0                       # Class of executed instruction
system.cpu.op_class::SimdSha256Hash2                0                       # Class of executed instruction
system.cpu.op_class::SimdShaSigma2                  0                       # Class of executed instruction
system.cpu.op_class::SimdShaSigma3                  0                       # Class of executed instruction
system.cpu.op_class::SimdPredAlu                    0                       # Class of executed instruction
system.cpu.op_class::MemRead                        0                       # Class of executed instruction
system.cpu.op_class::MemWrite                       0                       # Class of executed instruction
system.cpu.op_class::FloatMemRead                   0                       # Class of executed instruction
system.cpu.op_class::FloatMemWrite                  0                       # Class of executed instruction
system.cpu.op_class::IprAccess                      0                       # Class of executed instruction
system.cpu.op_class::InstPrefetch                   0                       # Class of executed instruction
system.cpu.op_class::total                          0                       # Class of executed instruction
system.cpu.workload.numSyscalls                    68                       # Number of system calls
system.membus.snoop_filter.hit_multi_requests            0                       # Number of requests hitting in the snoop filter with multiple (>1) holders of the requested data.
system.membus.snoop_filter.hit_multi_snoops            0                       # Number of snoops hitting in the snoop filter with multiple (>1) holders of the requested data.
system.membus.snoop_filter.hit_single_requests       474451                       # Number of requests hitting in the snoop filter with a single holder of the requested data.
system.membus.snoop_filter.hit_single_snoops            0                       # Number of snoops hitting in the snoop filter with a single holder of the requested data.
system.membus.snoop_filter.tot_requests        948762                       # Total number of requests made to the snoop filter.
system.membus.snoop_filter.tot_snoops               0                       # Total number of snoops made to the snoop filter.
system.switch_cpus.branchPred.BTBCorrect            0                       # Number of correct BTB predictions (this stat may not work properly.
system.switch_cpus.branchPred.BTBHitPct      0.000000                       # BTB Hit Percentage
system.switch_cpus.branchPred.BTBHits               0                       # Number of BTB hits
system.switch_cpus.branchPred.BTBLookups    220538811                       # Number of BTB lookups
system.switch_cpus.branchPred.RASInCorrect        85364                       # Number of incorrect RAS predictions.
system.switch_cpus.branchPred.condIncorrect     31433698                       # Number of conditional branches incorrect
system.switch_cpus.branchPred.condPredicted    196820397                       # Number of conditional branches predicted
system.switch_cpus.branchPred.indirectHits     56131056                       # Number of indirect target hits.
system.switch_cpus.branchPred.indirectLookups    220538811                       # Number of indirect predictor lookups.
system.switch_cpus.branchPred.indirectMisses    164407755                       # Number of indirect misses.
system.switch_cpus.branchPred.lookups       267074630                       # Number of BP lookups
system.switch_cpus.branchPred.usedRAS        27165955                       # Number of times the RAS was used to get a target.
system.switch_cpus.branchPredindirectMispredicted     29874762                       # Number of mispredicted indirect branches.
system.switch_cpus.cc_regfile_reads         613272724                       # number of cc regfile reads
system.switch_cpus.cc_regfile_writes        364994778                       # number of cc regfile writes
system.switch_cpus.commit.amos                      0                       # Number of atomic instructions committed
system.switch_cpus.commit.branchMispredicts     31436772                       # The number of times a branch was mispredicted
system.switch_cpus.commit.branches          107249826                       # Number of branches committed
system.switch_cpus.commit.bw_lim_events      45598739                       # number cycles where commit BW limit reached
system.switch_cpus.commit.commitNonSpecStalls        22523                       # The number of times commit has been forced to stall to communicate backwards
system.switch_cpus.commit.commitSquashedInsts    894855667                       # The number of squashed insts skipped by commit
system.switch_cpus.commit.committedInsts    500000001                       # Number of instructions committed
system.switch_cpus.commit.committedOps     1001239997                       # Number of ops (including micro ops) committed
system.switch_cpus.commit.committed_per_cycle::samples    901519322                       # Number of insts commited each cycle
system.switch_cpus.commit.committed_per_cycle::mean     1.110614                       # Number of insts commited each cycle
system.switch_cpus.commit.committed_per_cycle::stdev     2.149131                       # Number of insts commited each cycle
system.switch_cpus.commit.committed_per_cycle::underflows            0      0.00%      0.00% # Number of insts commited each cycle
system.switch_cpus.commit.committed_per_cycle::0    621413037     68.93%     68.93% # Number of insts commited each cycle
system.switch_cpus.commit.committed_per_cycle::1     69486498      7.71%     76.64% # Number of insts commited each cycle
system.switch_cpus.commit.committed_per_cycle::2     52466871      5.82%     82.46% # Number of insts commited each cycle
system.switch_cpus.commit.committed_per_cycle::3     52487325      5.82%     88.28% # Number of insts commited each cycle
system.switch_cpus.commit.committed_per_cycle::4     22152885      2.46%     90.74% # Number of insts commited each cycle
system.switch_cpus.commit.committed_per_cycle::5     18173426      2.02%     92.75% # Number of insts commited each cycle
system.switch_cpus.commit.committed_per_cycle::6     13094589      1.45%     94.20% # Number of insts commited each cycle
system.switch_cpus.commit.committed_per_cycle::7      6645952      0.74%     94.94% # Number of insts commited each cycle
system.switch_cpus.commit.committed_per_cycle::8     45598739      5.06%    100.00% # Number of insts commited each cycle
system.switch_cpus.commit.committed_per_cycle::overflows            0      0.00%    100.00% # Number of insts commited each cycle
system.switch_cpus.commit.committed_per_cycle::min_value            0                       # Number of insts commited each cycle
system.switch_cpus.commit.committed_per_cycle::max_value            8                       # Number of insts commited each cycle
system.switch_cpus.commit.committed_per_cycle::total    901519322                       # Number of insts commited each cycle
system.switch_cpus.commit.fp_insts            9673634                       # Number of committed floating point instructions.
system.switch_cpus.commit.function_calls     11467274                       # Number of function calls committed.
system.switch_cpus.commit.int_insts         995994036                       # Number of committed integer instructions.
system.switch_cpus.commit.loads             163190013                       # Number of loads committed
system.switch_cpus.commit.membars                8800                       # Number of memory barriers committed
system.switch_cpus.commit.op_class_0::No_OpClass       936448      0.09%      0.09% # Class of committed instruction
system.switch_cpus.commit.op_class_0::IntAlu    742566471     74.16%     74.26% # Class of committed instruction
system.switch_cpus.commit.op_class_0::IntMult        19542      0.00%     74.26% # Class of committed instruction
system.switch_cpus.commit.op_class_0::IntDiv        25867      0.00%     74.26% # Class of committed instruction
system.switch_cpus.commit.op_class_0::FloatAdd       961262      0.10%     74.36% # Class of committed instruction
system.switch_cpus.commit.op_class_0::FloatCmp            0      0.00%     74.36% # Class of committed instruction
system.switch_cpus.commit.op_class_0::FloatCvt            0      0.00%     74.36% # Class of committed instruction
system.switch_cpus.commit.op_class_0::FloatMult            0      0.00%     74.36% # Class of committed instruction
system.switch_cpus.commit.op_class_0::FloatMultAcc            0      0.00%     74.36% # Class of committed instruction
system.switch_cpus.commit.op_class_0::FloatDiv            0      0.00%     74.36% # Class of committed instruction
system.switch_cpus.commit.op_class_0::FloatMisc            0      0.00%     74.36% # Class of committed instruction
system.switch_cpus.commit.op_class_0::FloatSqrt            0      0.00%     74.36% # Class of committed instruction
system.switch_cpus.commit.op_class_0::SimdAdd            0      0.00%     74.36% # Class of committed instruction
system.switch_cpus.commit.op_class_0::SimdAddAcc            0      0.00%     74.36% # Class of committed instruction
system.switch_cpus.commit.op_class_0::SimdAlu       264674      0.03%     74.39% # Class of committed instruction
system.switch_cpus.commit.op_class_0::SimdCmp            0      0.00%     74.39% # Class of committed instruction
system.switch_cpus.commit.op_class_0::SimdCvt            0      0.00%     74.39% # Class of committed instruction
system.switch_cpus.commit.op_class_0::SimdMisc      1248466      0.12%     74.51% # Class of committed instruction
system.switch_cpus.commit.op_class_0::SimdMult            0      0.00%     74.51% # Class of committed instruction
system.switch_cpus.commit.op_class_0::SimdMultAcc            0      0.00%     74.51% # Class of committed instruction
system.switch_cpus.commit.op_class_0::SimdShift            0      0.00%     74.51% # Class of committed instruction
system.switch_cpus.commit.op_class_0::SimdShiftAcc            0      0.00%     74.51% # Class of committed instruction
system.switch_cpus.commit.op_class_0::SimdDiv            0      0.00%     74.51% # Class of committed instruction
system.switch_cpus.commit.op_class_0::SimdSqrt            0      0.00%     74.51% # Class of committed instruction
system.switch_cpus.commit.op_class_0::SimdFloatAdd            0      0.00%     74.51% # Class of committed instruction
system.switch_cpus.commit.op_class_0::SimdFloatAlu            0      0.00%     74.51% # Class of committed instruction
system.switch_cpus.commit.op_class_0::SimdFloatCmp            0      0.00%     74.51% # Class of committed instruction
system.switch_cpus.commit.op_class_0::SimdFloatCvt      1096035      0.11%     74.62% # Class of committed instruction
system.switch_cpus.commit.op_class_0::SimdFloatDiv            0      0.00%     74.62% # Class of committed instruction
system.switch_cpus.commit.op_class_0::SimdFloatMisc            0      0.00%     74.62% # Class of committed instruction
system.switch_cpus.commit.op_class_0::SimdFloatMult       132370      0.01%     74.63% # Class of committed instruction
system.switch_cpus.commit.op_class_0::SimdFloatMultAcc            0      0.00%     74.63% # Class of committed instruction
system.switch_cpus.commit.op_class_0::SimdFloatSqrt            0      0.00%     74.63% # Class of committed instruction
system.switch_cpus.commit.op_class_0::SimdReduceAdd            0      0.00%     74.63% # Class of committed instruction
system.switch_cpus.commit.op_class_0::SimdReduceAlu            0      0.00%     74.63% # Class of committed instruction
system.switch_cpus.commit.op_class_0::SimdReduceCmp            0      0.00%     74.63% # Class of committed instruction
system.switch_cpus.commit.op_class_0::SimdFloatReduceAdd            0      0.00%     74.63% # Class of committed instruction
system.switch_cpus.commit.op_class_0::SimdFloatReduceCmp            0      0.00%     74.63% # Class of committed instruction
system.switch_cpus.commit.op_class_0::SimdAes            0      0.00%     74.63% # Class of committed instruction
system.switch_cpus.commit.op_class_0::SimdAesMix            0      0.00%     74.63% # Class of committed instruction
system.switch_cpus.commit.op_class_0::SimdSha1Hash            0      0.00%     74.63% # Class of committed instruction
system.switch_cpus.commit.op_class_0::SimdSha1Hash2            0      0.00%     74.63% # Class of committed instruction
system.switch_cpus.commit.op_class_0::SimdSha256Hash            0      0.00%     74.63% # Class of committed instruction
system.switch_cpus.commit.op_class_0::SimdSha256Hash2            0      0.00%     74.63% # Class of committed instruction
system.switch_cpus.commit.op_class_0::SimdShaSigma2            0      0.00%     74.63% # Class of committed instruction
system.switch_cpus.commit.op_class_0::SimdShaSigma3            0      0.00%     74.63% # Class of committed instruction
system.switch_cpus.commit.op_class_0::SimdPredAlu            0      0.00%     74.63% # Class of committed instruction
system.switch_cpus.commit.op_class_0::MemRead    160218681     16.00%     90.63% # Class of committed instruction
system.switch_cpus.commit.op_class_0::MemWrite     88221854      8.81%     99.45% # Class of committed instruction
system.switch_cpus.commit.op_class_0::FloatMemRead      2971332      0.30%     99.74% # Class of committed instruction
system.switch_cpus.commit.op_class_0::FloatMemWrite      2576994      0.26%    100.00% # Class of committed instruction
system.switch_cpus.commit.op_class_0::IprAccess            0      0.00%    100.00% # Class of committed instruction
system.switch_cpus.commit.op_class_0::InstPrefetch            0      0.00%    100.00% # Class of committed instruction
system.switch_cpus.commit.op_class_0::total   1001239996                       # Class of committed instruction
system.switch_cpus.commit.refs              253988861                       # Number of memory references committed
system.switch_cpus.commit.swp_count                 0                       # Number of s/w prefetches committed
system.switch_cpus.commit.vec_insts                 0                       # Number of committed Vector instructions.
system.switch_cpus.committedInsts           500000000                       # Number of Instructions Simulated
system.switch_cpus.committedOps            1001239996                       # Number of Ops (including micro ops) Simulated
system.switch_cpus.cpi                       2.366707                       # CPI: Cycles Per Instruction
system.switch_cpus.cpi_total                 2.366707                       # CPI: Total CPI of All Threads
system.switch_cpus.decode.BlockedCycles     144395100                       # Number of cycles decode is blocked
system.switch_cpus.decode.DecodedInsts     2206695578                       # Number of instructions handled by decode
system.switch_cpus.decode.IdleCycles        536489821                       # Number of cycles decode is idle
system.switch_cpus.decode.RunCycles         307203890                       # Number of cycles decode is running
system.switch_cpus.decode.SquashCycles       31771324                       # Number of cycles decode is squashing
system.switch_cpus.decode.UnblockCycles      18805284                       # Number of cycles decode is unblocking
system.switch_cpus.dtb.rdAccesses           241472452                       # TLB accesses on read requests
system.switch_cpus.dtb.rdMisses               4666170                       # TLB misses on read requests
system.switch_cpus.dtb.wrAccesses           136837822                       # TLB accesses on write requests
system.switch_cpus.dtb.wrMisses                302000                       # TLB misses on write requests
system.switch_cpus.fetch.Branches           267074630                       # Number of branches that fetch encountered
system.switch_cpus.fetch.CacheLines         165338105                       # Number of cache lines fetched
system.switch_cpus.fetch.Cycles             416295065                       # Number of cycles fetch has run and was not squashing or blocked
system.switch_cpus.fetch.IcacheSquashes      14531386                       # Number of outstanding Icache misses that were squashed
system.switch_cpus.fetch.IcacheWaitRetryStallCycles    120284415                       # Number of stall cycles due to full MSHR
system.switch_cpus.fetch.Insts             1151008413                       # Number of instructions fetch has processed
system.switch_cpus.fetch.MiscStallCycles     22435174                       # Number of cycles fetch has spent waiting on interrupts, or bad addresses, or out of MSHRs
system.switch_cpus.fetch.PendingTrapStallCycles       257772                       # Number of stall cycles due to pending traps
system.switch_cpus.fetch.SquashCycles        63542648                       # Number of cycles fetch has spent squashing
system.switch_cpus.fetch.branchRate          0.225693                       # Number of branch fetches per cycle
system.switch_cpus.fetch.icacheStallCycles    447621677                       # Number of cycles fetch is stalled on an Icache miss
system.switch_cpus.fetch.predictedBranches     83297011                       # Number of branches that fetch has predicted taken
system.switch_cpus.fetch.rate                0.972667                       # Number of inst fetches per cycle
system.switch_cpus.fetch.rateDist::samples   1038665427                       # Number of instructions fetched each cycle (Total)
system.switch_cpus.fetch.rateDist::mean      2.256854                       # Number of instructions fetched each cycle (Total)
system.switch_cpus.fetch.rateDist::stdev     3.363159                       # Number of instructions fetched each cycle (Total)
system.switch_cpus.fetch.rateDist::underflows            0      0.00%      0.00% # Number of instructions fetched each cycle (Total)
system.switch_cpus.fetch.rateDist::0        676010581     65.08%     65.08% # Number of instructions fetched each cycle (Total)
system.switch_cpus.fetch.rateDist::1         22069390      2.12%     67.21% # Number of instructions fetched each cycle (Total)
system.switch_cpus.fetch.rateDist::2         12123794      1.17%     68.38% # Number of instructions fetched each cycle (Total)
system.switch_cpus.fetch.rateDist::3         25439274      2.45%     70.83% # Number of instructions fetched each cycle (Total)
system.switch_cpus.fetch.rateDist::4         16451723      1.58%     72.41% # Number of instructions fetched each cycle (Total)
system.switch_cpus.fetch.rateDist::5         22000918      2.12%     74.53% # Number of instructions fetched each cycle (Total)
system.switch_cpus.fetch.rateDist::6         28297221      2.72%     77.25% # Number of instructions fetched each cycle (Total)
system.switch_cpus.fetch.rateDist::7         14293941      1.38%     78.63% # Number of instructions fetched each cycle (Total)
system.switch_cpus.fetch.rateDist::8        221978585     21.37%    100.00% # Number of instructions fetched each cycle (Total)
system.switch_cpus.fetch.rateDist::overflows            0      0.00%    100.00% # Number of instructions fetched each cycle (Total)
system.switch_cpus.fetch.rateDist::min_value            0                       # Number of instructions fetched each cycle (Total)
system.switch_cpus.fetch.rateDist::max_value            8                       # Number of instructions fetched each cycle (Total)
system.switch_cpus.fetch.rateDist::total   1038665427                       # Number of instructions fetched each cycle (Total)
system.switch_cpus.fp_regfile_reads          12432320                       # number of floating regfile reads
system.switch_cpus.fp_regfile_writes          9232599                       # number of floating regfile writes
system.switch_cpus.idleCycles               144688024                       # Total number of cycles that the CPU has spent unscheduled due to idling
system.switch_cpus.iew.branchMispredicts     42188819                       # Number of branch mispredicts detected at execute
system.switch_cpus.iew.exec_branches        150805908                       # Number of branches executed
system.switch_cpus.iew.exec_nop                     0                       # number of nop insts executed
system.switch_cpus.iew.exec_rate             1.356545                       # Inst execution rate
system.switch_cpus.iew.exec_refs            402043627                       # number of memory reference insts executed
system.switch_cpus.iew.exec_stores          136767861                       # Number of stores executed
system.switch_cpus.iew.exec_swp                     0                       # number of swp insts executed
system.switch_cpus.iew.iewBlockCycles       117781509                       # Number of cycles IEW is blocking
system.switch_cpus.iew.iewDispLoadInsts     297983372                       # Number of dispatched load instructions
system.switch_cpus.iew.iewDispNonSpecInsts        17921                       # Number of dispatched non-speculative instructions
system.switch_cpus.iew.iewDispSquashedInsts      1372837                       # Number of squashed instructions skipped by dispatch
system.switch_cpus.iew.iewDispStoreInsts    174195940                       # Number of dispatched store instructions
system.switch_cpus.iew.iewDispatchedInsts   1899893936                       # Number of instructions dispatched to IQ
system.switch_cpus.iew.iewExecLoadInsts     265275766                       # Number of load instructions executed
system.switch_cpus.iew.iewExecSquashedInsts     66256589                       # Number of squashed instructions skipped in execute
system.switch_cpus.iew.iewExecutedInsts    1605272515                       # Number of executed instructions
system.switch_cpus.iew.iewIQFullEvents         627487                       # Number of times the IQ has become full, causing a stall
system.switch_cpus.iew.iewIdleCycles                0                       # Number of cycles IEW is idle
system.switch_cpus.iew.iewLSQFullEvents       2048985                       # Number of times the LSQ has become full, causing a stall
system.switch_cpus.iew.iewSquashCycles       31771324                       # Number of cycles IEW is squashing
system.switch_cpus.iew.iewUnblockCycles       2724452                       # Number of cycles IEW is unblocking
system.switch_cpus.iew.lsq.thread0.blockedLoads            0                       # Number of blocked loads due to partial load-store forwarding
system.switch_cpus.iew.lsq.thread0.cacheBlocked      4913845                       # Number of times an access to memory failed due to the cache being blocked
system.switch_cpus.iew.lsq.thread0.forwLoads     19657714                       # Number of loads that had data forwarded from stores
system.switch_cpus.iew.lsq.thread0.ignoredResponses       339884                       # Number of memory responses ignored because the instruction is squashed
system.switch_cpus.iew.lsq.thread0.invAddrLoads            0                       # Number of loads ignored due to an invalid address
system.switch_cpus.iew.lsq.thread0.invAddrSwpfs            0                       # Number of software prefetches ignored due to an invalid address
system.switch_cpus.iew.lsq.thread0.memOrderViolation       253108                       # Number of memory ordering violations
system.switch_cpus.iew.lsq.thread0.rescheduledLoads        15839                       # Number of loads that were rescheduled
system.switch_cpus.iew.lsq.thread0.squashedLoads    134793352                       # Number of loads squashed
system.switch_cpus.iew.lsq.thread0.squashedStores     83397090                       # Number of stores squashed
system.switch_cpus.iew.memOrderViolationEvents       253108                       # Number of memory order violations
system.switch_cpus.iew.predictedNotTakenIncorrect     37981193                       # Number of branches that were predicted not taken incorrectly
system.switch_cpus.iew.predictedTakenIncorrect      4207626                       # Number of branches that were predicted taken incorrectly
system.switch_cpus.iew.wb_consumers        1629379737                       # num instructions consuming a value
system.switch_cpus.iew.wb_count            1542483962                       # cumulative count of insts written-back
system.switch_cpus.iew.wb_fanout             0.677830                       # average fanout of values written-back
system.switch_cpus.iew.wb_producers        1104442050                       # num instructions producing a value
system.switch_cpus.iew.wb_rate               1.303485                       # insts written-back per cycle
system.switch_cpus.iew.wb_sent             1558545618                       # cumulative count of insts sent to commit
system.switch_cpus.int_regfile_reads       2107925793                       # number of integer regfile reads
system.switch_cpus.int_regfile_writes      1242715077                       # number of integer regfile writes
system.switch_cpus.ipc                       0.422528                       # IPC: Instructions Per Cycle
system.switch_cpus.ipc_total                 0.422528                       # IPC: Total IPC of All Threads
system.switch_cpus.iq.FU_type_0::No_OpClass     11770922      0.70%      0.70% # Type of FU issued
system.switch_cpus.iq.FU_type_0::IntAlu    1231556761     73.68%     74.38% # Type of FU issued
system.switch_cpus.iq.FU_type_0::IntMult        21022      0.00%     74.38% # Type of FU issued
system.switch_cpus.iq.FU_type_0::IntDiv         28220      0.00%     74.39% # Type of FU issued
system.switch_cpus.iq.FU_type_0::FloatAdd      1549240      0.09%     74.48% # Type of FU issued
system.switch_cpus.iq.FU_type_0::FloatCmp            0      0.00%     74.48% # Type of FU issued
system.switch_cpus.iq.FU_type_0::FloatCvt            0      0.00%     74.48% # Type of FU issued
system.switch_cpus.iq.FU_type_0::FloatMult            0      0.00%     74.48% # Type of FU issued
system.switch_cpus.iq.FU_type_0::FloatMultAcc            0      0.00%     74.48% # Type of FU issued
system.switch_cpus.iq.FU_type_0::FloatDiv            0      0.00%     74.48% # Type of FU issued
system.switch_cpus.iq.FU_type_0::FloatMisc            0      0.00%     74.48% # Type of FU issued
system.switch_cpus.iq.FU_type_0::FloatSqrt            0      0.00%     74.48% # Type of FU issued
system.switch_cpus.iq.FU_type_0::SimdAdd            0      0.00%     74.48% # Type of FU issued
system.switch_cpus.iq.FU_type_0::SimdAddAcc            0      0.00%     74.48% # Type of FU issued
system.switch_cpus.iq.FU_type_0::SimdAlu       434617      0.03%     74.50% # Type of FU issued
system.switch_cpus.iq.FU_type_0::SimdCmp            0      0.00%     74.50% # Type of FU issued
system.switch_cpus.iq.FU_type_0::SimdCvt         3936      0.00%     74.50% # Type of FU issued
system.switch_cpus.iq.FU_type_0::SimdMisc      1333559      0.08%     74.58% # Type of FU issued
system.switch_cpus.iq.FU_type_0::SimdMult            0      0.00%     74.58% # Type of FU issued
system.switch_cpus.iq.FU_type_0::SimdMultAcc            0      0.00%     74.58% # Type of FU issued
system.switch_cpus.iq.FU_type_0::SimdShift            0      0.00%     74.58% # Type of FU issued
system.switch_cpus.iq.FU_type_0::SimdShiftAcc            0      0.00%     74.58% # Type of FU issued
system.switch_cpus.iq.FU_type_0::SimdDiv            0      0.00%     74.58% # Type of FU issued
system.switch_cpus.iq.FU_type_0::SimdSqrt            0      0.00%     74.58% # Type of FU issued
system.switch_cpus.iq.FU_type_0::SimdFloatAdd        41295      0.00%     74.59% # Type of FU issued
system.switch_cpus.iq.FU_type_0::SimdFloatAlu            0      0.00%     74.59% # Type of FU issued
system.switch_cpus.iq.FU_type_0::SimdFloatCmp            0      0.00%     74.59% # Type of FU issued
system.switch_cpus.iq.FU_type_0::SimdFloatCvt      1476116      0.09%     74.68% # Type of FU issued
system.switch_cpus.iq.FU_type_0::SimdFloatDiv            0      0.00%     74.68% # Type of FU issued
system.switch_cpus.iq.FU_type_0::SimdFloatMisc            0      0.00%     74.68% # Type of FU issued
system.switch_cpus.iq.FU_type_0::SimdFloatMult       132375      0.01%     74.68% # Type of FU issued
system.switch_cpus.iq.FU_type_0::SimdFloatMultAcc            0      0.00%     74.68% # Type of FU issued
system.switch_cpus.iq.FU_type_0::SimdFloatSqrt            0      0.00%     74.68% # Type of FU issued
system.switch_cpus.iq.FU_type_0::SimdReduceAdd            0      0.00%     74.68% # Type of FU issued
system.switch_cpus.iq.FU_type_0::SimdReduceAlu            0      0.00%     74.68% # Type of FU issued
system.switch_cpus.iq.FU_type_0::SimdReduceCmp            0      0.00%     74.68% # Type of FU issued
system.switch_cpus.iq.FU_type_0::SimdFloatReduceAdd            0      0.00%     74.68% # Type of FU issued
system.switch_cpus.iq.FU_type_0::SimdFloatReduceCmp            0      0.00%     74.68% # Type of FU issued
system.switch_cpus.iq.FU_type_0::SimdAes            0      0.00%     74.68% # Type of FU issued
system.switch_cpus.iq.FU_type_0::SimdAesMix            0      0.00%     74.68% # Type of FU issued
system.switch_cpus.iq.FU_type_0::SimdSha1Hash            0      0.00%     74.68% # Type of FU issued
system.switch_cpus.iq.FU_type_0::SimdSha1Hash2            0      0.00%     74.68% # Type of FU issued
system.switch_cpus.iq.FU_type_0::SimdSha256Hash            0      0.00%     74.68% # Type of FU issued
system.switch_cpus.iq.FU_type_0::SimdSha256Hash2            0      0.00%     74.68% # Type of FU issued
system.switch_cpus.iq.FU_type_0::SimdShaSigma2            0      0.00%     74.68% # Type of FU issued
system.switch_cpus.iq.FU_type_0::SimdShaSigma3            0      0.00%     74.68% # Type of FU issued
system.switch_cpus.iq.FU_type_0::SimdPredAlu            0      0.00%     74.68% # Type of FU issued
system.switch_cpus.iq.FU_type_0::MemRead    270751817     16.20%     90.88% # Type of FU issued
system.switch_cpus.iq.FU_type_0::MemWrite    139517756      8.35%     99.23% # Type of FU issued
system.switch_cpus.iq.FU_type_0::FloatMemRead      7789063      0.47%     99.69% # Type of FU issued
system.switch_cpus.iq.FU_type_0::FloatMemWrite      5122408      0.31%    100.00% # Type of FU issued
system.switch_cpus.iq.FU_type_0::IprAccess            0      0.00%    100.00% # Type of FU issued
system.switch_cpus.iq.FU_type_0::InstPrefetch            0      0.00%    100.00% # Type of FU issued
system.switch_cpus.iq.FU_type_0::total     1671529107                       # Type of FU issued
system.switch_cpus.iq.fp_alu_accesses        20302232                       # Number of floating point alu accesses
system.switch_cpus.iq.fp_inst_queue_reads     39134137                       # Number of floating instruction queue reads
system.switch_cpus.iq.fp_inst_queue_wakeup_accesses     15271474                       # Number of floating instruction queue wakeup accesses
system.switch_cpus.iq.fp_inst_queue_writes     29164142                       # Number of floating instruction queue writes
system.switch_cpus.iq.fu_busy_cnt            27457293                       # FU busy when requested
system.switch_cpus.iq.fu_busy_rate           0.016426                       # FU busy rate (busy events/executed inst)
system.switch_cpus.iq.fu_full::No_OpClass            0      0.00%      0.00% # attempts to use FU when none available
system.switch_cpus.iq.fu_full::IntAlu        16964882     61.79%     61.79% # attempts to use FU when none available
system.switch_cpus.iq.fu_full::IntMult              0      0.00%     61.79% # attempts to use FU when none available
system.switch_cpus.iq.fu_full::IntDiv               0      0.00%     61.79% # attempts to use FU when none available
system.switch_cpus.iq.fu_full::FloatAdd             0      0.00%     61.79% # attempts to use FU when none available
system.switch_cpus.iq.fu_full::FloatCmp             0      0.00%     61.79% # attempts to use FU when none available
system.switch_cpus.iq.fu_full::FloatCvt             0      0.00%     61.79% # attempts to use FU when none available
system.switch_cpus.iq.fu_full::FloatMult            0      0.00%     61.79% # attempts to use FU when none available
system.switch_cpus.iq.fu_full::FloatMultAcc            0      0.00%     61.79% # attempts to use FU when none available
system.switch_cpus.iq.fu_full::FloatDiv             0      0.00%     61.79% # attempts to use FU when none available
system.switch_cpus.iq.fu_full::FloatMisc            0      0.00%     61.79% # attempts to use FU when none available
system.switch_cpus.iq.fu_full::FloatSqrt            0      0.00%     61.79% # attempts to use FU when none available
system.switch_cpus.iq.fu_full::SimdAdd              0      0.00%     61.79% # attempts to use FU when none available
system.switch_cpus.iq.fu_full::SimdAddAcc            0      0.00%     61.79% # attempts to use FU when none available
system.switch_cpus.iq.fu_full::SimdAlu              8      0.00%     61.79% # attempts to use FU when none available
system.switch_cpus.iq.fu_full::SimdCmp              0      0.00%     61.79% # attempts to use FU when none available
system.switch_cpus.iq.fu_full::SimdCvt              0      0.00%     61.79% # attempts to use FU when none available
system.switch_cpus.iq.fu_full::SimdMisc             0      0.00%     61.79% # attempts to use FU when none available
system.switch_cpus.iq.fu_full::SimdMult             0      0.00%     61.79% # attempts to use FU when none available
system.switch_cpus.iq.fu_full::SimdMultAcc            0      0.00%     61.79% # attempts to use FU when none available
system.switch_cpus.iq.fu_full::SimdShift            0      0.00%     61.79% # attempts to use FU when none available
system.switch_cpus.iq.fu_full::SimdShiftAcc            0      0.00%     61.79% # attempts to use FU when none available
system.switch_cpus.iq.fu_full::SimdDiv              0      0.00%     61.79% # attempts to use FU when none available
system.switch_cpus.iq.fu_full::SimdSqrt             0      0.00%     61.79% # attempts to use FU when none available
system.switch_cpus.iq.fu_full::SimdFloatAdd            0      0.00%     61.79% # attempts to use FU when none available
system.switch_cpus.iq.fu_full::SimdFloatAlu            0      0.00%     61.79% # attempts to use FU when none available
system.switch_cpus.iq.fu_full::SimdFloatCmp            0      0.00%     61.79% # attempts to use FU when none available
system.switch_cpus.iq.fu_full::SimdFloatCvt            0      0.00%     61.79% # attempts to use FU when none available
system.switch_cpus.iq.fu_full::SimdFloatDiv            0      0.00%     61.79% # attempts to use FU when none available
system.switch_cpus.iq.fu_full::SimdFloatMisc            0      0.00%     61.79% # attempts to use FU when none available
system.switch_cpus.iq.fu_full::SimdFloatMult            0      0.00%     61.79% # attempts to use FU when none available
system.switch_cpus.iq.fu_full::SimdFloatMultAcc            0      0.00%     61.79% # attempts to use FU when none available
system.switch_cpus.iq.fu_full::SimdFloatSqrt            0      0.00%     61.79% # attempts to use FU when none available
system.switch_cpus.iq.fu_full::SimdReduceAdd            0      0.00%     61.79% # attempts to use FU when none available
system.switch_cpus.iq.fu_full::SimdReduceAlu            0      0.00%     61.79% # attempts to use FU when none available
system.switch_cpus.iq.fu_full::SimdReduceCmp            0      0.00%     61.79% # attempts to use FU when none available
system.switch_cpus.iq.fu_full::SimdFloatReduceAdd            0      0.00%     61.79% # attempts to use FU when none available
system.switch_cpus.iq.fu_full::SimdFloatReduceCmp            0      0.00%     61.79% # attempts to use FU when none available
system.switch_cpus.iq.fu_full::SimdAes              0      0.00%     61.79% # attempts to use FU when none available
system.switch_cpus.iq.fu_full::SimdAesMix            0      0.00%     61.79% # attempts to use FU when none available
system.switch_cpus.iq.fu_full::SimdSha1Hash            0      0.00%     61.79% # attempts to use FU when none available
system.switch_cpus.iq.fu_full::SimdSha1Hash2            0      0.00%     61.79% # attempts to use FU when none available
system.switch_cpus.iq.fu_full::SimdSha256Hash            0      0.00%     61.79% # attempts to use FU when none available
system.switch_cpus.iq.fu_full::SimdSha256Hash2            0      0.00%     61.79% # attempts to use FU when none available
system.switch_cpus.iq.fu_full::SimdShaSigma2            0      0.00%     61.79% # attempts to use FU when none available
system.switch_cpus.iq.fu_full::SimdShaSigma3            0      0.00%     61.79% # attempts to use FU when none available
system.switch_cpus.iq.fu_full::SimdPredAlu            0      0.00%     61.79% # attempts to use FU when none available
system.switch_cpus.iq.fu_full::MemRead        6166936     22.46%     84.25% # attempts to use FU when none available
system.switch_cpus.iq.fu_full::MemWrite       2371603      8.64%     92.88% # attempts to use FU when none available
system.switch_cpus.iq.fu_full::FloatMemRead      1307497      4.76%     97.65% # attempts to use FU when none available
system.switch_cpus.iq.fu_full::FloatMemWrite       646367      2.35%    100.00% # attempts to use FU when none available
system.switch_cpus.iq.fu_full::IprAccess            0      0.00%    100.00% # attempts to use FU when none available
system.switch_cpus.iq.fu_full::InstPrefetch            0      0.00%    100.00% # attempts to use FU when none available
system.switch_cpus.iq.int_alu_accesses     1666913246                       # Number of integer alu accesses
system.switch_cpus.iq.int_inst_queue_reads   4380467770                       # Number of integer instruction queue reads
system.switch_cpus.iq.int_inst_queue_wakeup_accesses   1527212488                       # Number of integer instruction queue wakeup accesses
system.switch_cpus.iq.int_inst_queue_writes   2769616451                       # Number of integer instruction queue writes
system.switch_cpus.iq.iqInstsAdded         1899744867                       # Number of instructions added to the IQ (excludes non-spec)
system.switch_cpus.iq.iqInstsIssued        1671529107                       # Number of instructions issued
system.switch_cpus.iq.iqNonSpecInstsAdded       149069                       # Number of non-speculative instructions added to the IQ
system.switch_cpus.iq.iqSquashedInstsExamined    898653886                       # Number of squashed instructions iterated over during squash; mainly for profiling
system.switch_cpus.iq.iqSquashedInstsIssued     10420976                       # Number of squashed instructions issued
system.switch_cpus.iq.iqSquashedNonSpecRemoved       126546                       # Number of squashed non-spec instructions that were removed
system.switch_cpus.iq.iqSquashedOperandsExamined   1098105225                       # Number of squashed operands that are examined and possibly removed from graph
system.switch_cpus.iq.issued_per_cycle::samples   1038665427                       # Number of insts issued each cycle
system.switch_cpus.iq.issued_per_cycle::mean     1.609305                       # Number of insts issued each cycle
system.switch_cpus.iq.issued_per_cycle::stdev     2.326597                       # Number of insts issued each cycle
system.switch_cpus.iq.issued_per_cycle::underflows            0      0.00%      0.00% # Number of insts issued each cycle
system.switch_cpus.iq.issued_per_cycle::0    608635678     58.60%     58.60% # Number of insts issued each cycle
system.switch_cpus.iq.issued_per_cycle::1     65506633      6.31%     64.90% # Number of insts issued each cycle
system.switch_cpus.iq.issued_per_cycle::2     69199453      6.66%     71.57% # Number of insts issued each cycle
system.switch_cpus.iq.issued_per_cycle::3     61097229      5.88%     77.45% # Number of insts issued each cycle
system.switch_cpus.iq.issued_per_cycle::4     66459585      6.40%     83.85% # Number of insts issued each cycle
system.switch_cpus.iq.issued_per_cycle::5     60735545      5.85%     89.70% # Number of insts issued each cycle
system.switch_cpus.iq.issued_per_cycle::6     54972629      5.29%     94.99% # Number of insts issued each cycle
system.switch_cpus.iq.issued_per_cycle::7     31489358      3.03%     98.02% # Number of insts issued each cycle
system.switch_cpus.iq.issued_per_cycle::8     20569317      1.98%    100.00% # Number of insts issued each cycle
system.switch_cpus.iq.issued_per_cycle::overflows            0      0.00%    100.00% # Number of insts issued each cycle
system.switch_cpus.iq.issued_per_cycle::min_value            0                       # Number of insts issued each cycle
system.switch_cpus.iq.issued_per_cycle::max_value            8                       # Number of insts issued each cycle
system.switch_cpus.iq.issued_per_cycle::total   1038665427                       # Number of insts issued each cycle
system.switch_cpus.iq.rate                   1.412536                       # Inst issue rate
system.switch_cpus.iq.vec_alu_accesses              0                       # Number of vector alu accesses
system.switch_cpus.iq.vec_inst_queue_reads            0                       # Number of vector instruction queue reads
system.switch_cpus.iq.vec_inst_queue_wakeup_accesses            0                       # Number of vector instruction queue wakeup accesses
system.switch_cpus.iq.vec_inst_queue_writes            0                       # Number of vector instruction queue writes
system.switch_cpus.itb.rdAccesses                   0                       # TLB accesses on read requests
system.switch_cpus.itb.rdMisses                     0                       # TLB misses on read requests
system.switch_cpus.itb.wrAccesses           165413990                       # TLB accesses on write requests
system.switch_cpus.itb.wrMisses                340601                       # TLB misses on write requests
system.switch_cpus.memDep0.conflictingLoads     17018454                       # Number of conflicting loads.
system.switch_cpus.memDep0.conflictingStores     18339448                       # Number of conflicting stores.
system.switch_cpus.memDep0.insertedLoads    297983372                       # Number of loads inserted to the mem dependence unit.
system.switch_cpus.memDep0.insertedStores    174195940                       # Number of stores inserted to the mem dependence unit.
system.switch_cpus.misc_regfile_reads       837849840                       # number of misc regfile reads
system.switch_cpus.numCycles               1183353451                       # number of cpu cycles simulated
system.switch_cpus.numWorkItemsCompleted            0                       # number of work items this cpu completed
system.switch_cpus.numWorkItemsStarted              0                       # number of work items this cpu started
system.switch_cpus.rename.BlockCycles       123922618                       # Number of cycles rename is blocking
system.switch_cpus.rename.CommittedMaps    1062350926                       # Number of HB maps that are committed
system.switch_cpus.rename.IQFullEvents        9332505                       # Number of times rename has blocked due to IQ full
system.switch_cpus.rename.IdleCycles        552711331                       # Number of cycles rename is idle
system.switch_cpus.rename.LQFullEvents        2858560                       # Number of times rename has blocked due to LQ full
system.switch_cpus.rename.ROBFullEvents        317459                       # Number of times rename has blocked due to ROB full
system.switch_cpus.rename.RenameLookups    5006305179                       # Number of register rename lookups that rename has made
system.switch_cpus.rename.RenamedInsts     2106786558                       # Number of instructions processed by rename
system.switch_cpus.rename.RenamedOperands   2203229628                       # Number of destination operands rename has renamed
system.switch_cpus.rename.RunCycles         307538393                       # Number of cycles rename is running
system.switch_cpus.rename.SQFullEvents        9449953                       # Number of times rename has blocked due to SQ full
system.switch_cpus.rename.SquashCycles       31771324                       # Number of cycles rename is squashing
system.switch_cpus.rename.UnblockCycles      22720263                       # Number of cycles rename is unblocking
system.switch_cpus.rename.UndoneMaps       1140878635                       # Number of HB maps that are undone due to squashing
system.switch_cpus.rename.fp_rename_lookups     17219354                       # Number of floating rename lookups
system.switch_cpus.rename.int_rename_lookups   2942972329                       # Number of integer rename lookups
system.switch_cpus.rename.serializeStallCycles         1491                       # count of cycles rename stalled for serializing inst
system.switch_cpus.rename.serializingInsts           74                       # count of serializing insts renamed
system.switch_cpus.rename.skidInsts          38038491                       # count of insts added to the skid buffer
system.switch_cpus.rename.tempSerializingInsts           74                       # count of temporary serializing insts renamed
system.switch_cpus.rob.rob_reads           2750201343                       # The number of ROB reads
system.switch_cpus.rob.rob_writes          3931395295                       # The number of ROB writes
system.switch_cpus.timesIdled                13935498                       # Number of times that the entire CPU went into an idle state and unscheduled itself
system.tol2bus.snoop_filter.hit_multi_requests        13733                       # Number of requests hitting in the snoop filter with multiple (>1) holders of the requested data.
system.tol2bus.snoop_filter.hit_multi_snoops           14                       # Number of snoops hitting in the snoop filter with multiple (>1) holders of the requested data.
system.tol2bus.snoop_filter.hit_single_requests     26881171                       # Number of requests hitting in the snoop filter with a single holder of the requested data.
system.tol2bus.snoop_filter.hit_single_snoops         1148                       # Number of snoops hitting in the snoop filter with a single holder of the requested data.
system.tol2bus.snoop_filter.tot_requests     53724515                       # Total number of requests made to the snoop filter.
system.tol2bus.snoop_filter.tot_snoops           1162                       # Total number of snoops made to the snoop filter.
system.membus.pwrStateResidencyTicks::UNDEFINED 1755979734000                       # Cumulative time (in ticks) in various power states
system.membus.trans_dist::ReadResp             336710                       # Transaction distribution
system.membus.trans_dist::WritebackDirty       210451                       # Transaction distribution
system.membus.trans_dist::CleanEvict           263948                       # Transaction distribution
system.membus.trans_dist::UpgradeReq                9                       # Transaction distribution
system.membus.trans_dist::ReadExReq            137644                       # Transaction distribution
system.membus.trans_dist::ReadExResp           137644                       # Transaction distribution
system.membus.trans_dist::ReadSharedReq        336710                       # Transaction distribution
system.membus.pkt_count_system.l2.mem_side::system.mem_ctrls.port      1423116                       # Packet count per connected master and slave (bytes)
system.membus.pkt_count_system.l2.mem_side::total      1423116                       # Packet count per connected master and slave (bytes)
system.membus.pkt_count::total                1423116                       # Packet count per connected master and slave (bytes)
system.membus.pkt_size_system.l2.mem_side::system.mem_ctrls.port     43827520                       # Cumulative packet size per connected master and slave (bytes)
system.membus.pkt_size_system.l2.mem_side::total     43827520                       # Cumulative packet size per connected master and slave (bytes)
system.membus.pkt_size::total                43827520                       # Cumulative packet size per connected master and slave (bytes)
system.membus.snoops                                0                       # Total snoops (count)
system.membus.snoopTraffic                          0                       # Total snoop traffic (bytes)
system.membus.snoop_fanout::samples            474363                       # Request fanout histogram
system.membus.snoop_fanout::mean                    0                       # Request fanout histogram
system.membus.snoop_fanout::stdev                   0                       # Request fanout histogram
system.membus.snoop_fanout::underflows              0      0.00%      0.00% # Request fanout histogram
system.membus.snoop_fanout::0                  474363    100.00%    100.00% # Request fanout histogram
system.membus.snoop_fanout::1                       0      0.00%    100.00% # Request fanout histogram
system.membus.snoop_fanout::overflows               0      0.00%    100.00% # Request fanout histogram
system.membus.snoop_fanout::min_value               0                       # Request fanout histogram
system.membus.snoop_fanout::max_value               0                       # Request fanout histogram
system.membus.snoop_fanout::total              474363                       # Request fanout histogram
system.membus.reqLayer2.occupancy          1911327870                       # Layer occupancy (ticks)
system.membus.reqLayer2.utilization               0.3                       # Layer utilization (%)
system.membus.respLayer1.occupancy         2559170459                       # Layer occupancy (ticks)
system.membus.respLayer1.utilization              0.4                       # Layer utilization (%)
system.switch_cpus.pwrStateResidencyTicks::OFF 1755979734000                       # Cumulative time (in ticks) in various power states
system.switch_cpus.dtb.walker.pwrStateResidencyTicks::UNDEFINED 1755979734000                       # Cumulative time (in ticks) in various power states
system.switch_cpus.itb.walker.pwrStateResidencyTicks::UNDEFINED 1755979734000                       # Cumulative time (in ticks) in various power states
system.tol2bus.pwrStateResidencyTicks::UNDEFINED 1755979734000                       # Cumulative time (in ticks) in various power states
system.tol2bus.trans_dist::ReadResp          26139106                       # Transaction distribution
system.tol2bus.trans_dist::WritebackDirty      1848148                       # Transaction distribution
system.tol2bus.trans_dist::WritebackClean     21324221                       # Transaction distribution
system.tol2bus.trans_dist::CleanEvict         3995610                       # Transaction distribution
system.tol2bus.trans_dist::UpgradeReq              13                       # Transaction distribution
system.tol2bus.trans_dist::UpgradeResp             13                       # Transaction distribution
system.tol2bus.trans_dist::ReadExReq           553526                       # Transaction distribution
system.tol2bus.trans_dist::ReadExResp          553526                       # Transaction distribution
system.tol2bus.trans_dist::ReadCleanReq      21324233                       # Transaction distribution
system.tol2bus.trans_dist::ReadSharedReq      4814873                       # Transaction distribution
system.tol2bus.pkt_count_system.cpu.icache.mem_side::system.l2.cpu_side     63972674                       # Packet count per connected master and slave (bytes)
system.tol2bus.pkt_count_system.cpu.dcache.mem_side::system.l2.cpu_side     16105223                       # Packet count per connected master and slave (bytes)
system.tol2bus.pkt_count::total              80077897                       # Packet count per connected master and slave (bytes)
system.tol2bus.pkt_size_system.cpu.icache.mem_side::system.l2.cpu_side   2729500224                       # Cumulative packet size per connected master and slave (bytes)
system.tol2bus.pkt_size_system.cpu.dcache.mem_side::system.l2.cpu_side    448390144                       # Cumulative packet size per connected master and slave (bytes)
system.tol2bus.pkt_size::total             3177890368                       # Cumulative packet size per connected master and slave (bytes)
system.tol2bus.snoops                          475372                       # Total snoops (count)
system.tol2bus.snoopTraffic                  13469696                       # Total snoop traffic (bytes)
system.tol2bus.snoop_fanout::samples         27318705                       # Request fanout histogram
system.tol2bus.snoop_fanout::mean            0.000546                       # Request fanout histogram
system.tol2bus.snoop_fanout::stdev           0.023377                       # Request fanout histogram
system.tol2bus.snoop_fanout::underflows             0      0.00%      0.00% # Request fanout histogram
system.tol2bus.snoop_fanout::0               27303809     99.95%     99.95% # Request fanout histogram
system.tol2bus.snoop_fanout::1                  14882      0.05%    100.00% # Request fanout histogram
system.tol2bus.snoop_fanout::2                     14      0.00%    100.00% # Request fanout histogram
system.tol2bus.snoop_fanout::3                      0      0.00%    100.00% # Request fanout histogram
system.tol2bus.snoop_fanout::4                      0      0.00%    100.00% # Request fanout histogram
system.tol2bus.snoop_fanout::overflows              0      0.00%    100.00% # Request fanout histogram
system.tol2bus.snoop_fanout::min_value              0                       # Request fanout histogram
system.tol2bus.snoop_fanout::max_value              2                       # Request fanout histogram
system.tol2bus.snoop_fanout::total           27318705                       # Request fanout histogram
system.tol2bus.reqLayer0.occupancy        49993451769                       # Layer occupancy (ticks)
system.tol2bus.reqLayer0.utilization              8.4                       # Layer utilization (%)
system.tol2bus.respLayer1.occupancy        8052629451                       # Layer occupancy (ticks)
system.tol2bus.respLayer1.utilization             1.4                       # Layer utilization (%)
system.tol2bus.respLayer0.occupancy       31986406885                       # Layer occupancy (ticks)
system.tol2bus.respLayer0.utilization             5.4                       # Layer utilization (%)
system.voltage_domain.voltage                       1                       # Voltage in Volts
system.clk_domain.clock                          1000                       # Clock period in ticks
system.l2.pwrStateResidencyTicks::UNDEFINED 1755979734000                       # Cumulative time (in ticks) in various power states
system.l2.demand_hits::.switch_cpus.inst     21318391                       # number of demand (read+write) hits
system.l2.demand_hits::.switch_cpus.data      4899874                       # number of demand (read+write) hits
system.l2.demand_hits::total                 26218265                       # number of demand (read+write) hits
system.l2.overall_hits::.switch_cpus.inst     21318391                       # number of overall hits
system.l2.overall_hits::.switch_cpus.data      4899874                       # number of overall hits
system.l2.overall_hits::total                26218265                       # number of overall hits
system.l2.demand_misses::.switch_cpus.inst         5829                       # number of demand (read+write) misses
system.l2.demand_misses::.switch_cpus.data       468525                       # number of demand (read+write) misses
system.l2.demand_misses::total                 474354                       # number of demand (read+write) misses
system.l2.overall_misses::.switch_cpus.inst         5829                       # number of overall misses
system.l2.overall_misses::.switch_cpus.data       468525                       # number of overall misses
system.l2.overall_misses::total                474354                       # number of overall misses
system.l2.demand_miss_latency::.switch_cpus.inst    498733536                       # number of demand (read+write) miss cycles
system.l2.demand_miss_latency::.switch_cpus.data  38731265094                       # number of demand (read+write) miss cycles
system.l2.demand_miss_latency::total      39229998630                       # number of demand (read+write) miss cycles
system.l2.overall_miss_latency::.switch_cpus.inst    498733536                       # number of overall miss cycles
system.l2.overall_miss_latency::.switch_cpus.data  38731265094                       # number of overall miss cycles
system.l2.overall_miss_latency::total     39229998630                       # number of overall miss cycles
system.l2.demand_accesses::.switch_cpus.inst     21324220                       # number of demand (read+write) accesses
system.l2.demand_accesses::.switch_cpus.data      5368399                       # number of demand (read+write) accesses
system.l2.demand_accesses::total             26692619                       # number of demand (read+write) accesses
system.l2.overall_accesses::.switch_cpus.inst     21324220                       # number of overall (read+write) accesses
system.l2.overall_accesses::.switch_cpus.data      5368399                       # number of overall (read+write) accesses
system.l2.overall_accesses::total            26692619                       # number of overall (read+write) accesses
system.l2.demand_miss_rate::.switch_cpus.inst     0.000273                       # miss rate for demand accesses
system.l2.demand_miss_rate::.switch_cpus.data     0.087275                       # miss rate for demand accesses
system.l2.demand_miss_rate::total            0.017771                       # miss rate for demand accesses
system.l2.overall_miss_rate::.switch_cpus.inst     0.000273                       # miss rate for overall accesses
system.l2.overall_miss_rate::.switch_cpus.data     0.087275                       # miss rate for overall accesses
system.l2.overall_miss_rate::total           0.017771                       # miss rate for overall accesses
system.l2.demand_avg_miss_latency::.switch_cpus.inst 85560.737005                       # average overall miss latency
system.l2.demand_avg_miss_latency::.switch_cpus.data 82666.378729                       # average overall miss latency
system.l2.demand_avg_miss_latency::total 82701.945446                       # average overall miss latency
system.l2.overall_avg_miss_latency::.switch_cpus.inst 85560.737005                       # average overall miss latency
system.l2.overall_avg_miss_latency::.switch_cpus.data 82666.378729                       # average overall miss latency
system.l2.overall_avg_miss_latency::total 82701.945446                       # average overall miss latency
system.l2.blocked_cycles::no_mshrs           68972408                       # number of cycles access was blocked
system.l2.blocked_cycles::no_targets                0                       # number of cycles access was blocked
system.l2.blocked::no_mshrs                    474363                       # number of cycles access was blocked
system.l2.blocked::no_targets                       0                       # number of cycles access was blocked
system.l2.avg_blocked_cycles::no_mshrs     145.400059                       # average number of cycles each access was blocked
system.l2.avg_blocked_cycles::no_targets          nan                       # average number of cycles each access was blocked
system.l2.writebacks::.writebacks              210451                       # number of writebacks
system.l2.writebacks::total                    210451                       # number of writebacks
system.l2.demand_mshr_misses::.switch_cpus.inst         5829                       # number of demand (read+write) MSHR misses
system.l2.demand_mshr_misses::.switch_cpus.data       468525                       # number of demand (read+write) MSHR misses
system.l2.demand_mshr_misses::total            474354                       # number of demand (read+write) MSHR misses
system.l2.overall_mshr_misses::.switch_cpus.inst         5829                       # number of overall MSHR misses
system.l2.overall_mshr_misses::.switch_cpus.data       468525                       # number of overall MSHR misses
system.l2.overall_mshr_misses::total           474354                       # number of overall MSHR misses
system.l2.demand_mshr_miss_latency::.switch_cpus.inst    440443536                       # number of demand (read+write) MSHR miss cycles
system.l2.demand_mshr_miss_latency::.switch_cpus.data  34046015094                       # number of demand (read+write) MSHR miss cycles
system.l2.demand_mshr_miss_latency::total  34486458630                       # number of demand (read+write) MSHR miss cycles
system.l2.overall_mshr_miss_latency::.switch_cpus.inst    440443536                       # number of overall MSHR miss cycles
system.l2.overall_mshr_miss_latency::.switch_cpus.data  34046015094                       # number of overall MSHR miss cycles
system.l2.overall_mshr_miss_latency::total  34486458630                       # number of overall MSHR miss cycles
system.l2.demand_mshr_miss_rate::.switch_cpus.inst     0.000273                       # mshr miss rate for demand accesses
system.l2.demand_mshr_miss_rate::.switch_cpus.data     0.087275                       # mshr miss rate for demand accesses
system.l2.demand_mshr_miss_rate::total       0.017771                       # mshr miss rate for demand accesses
system.l2.overall_mshr_miss_rate::.switch_cpus.inst     0.000273                       # mshr miss rate for overall accesses
system.l2.overall_mshr_miss_rate::.switch_cpus.data     0.087275                       # mshr miss rate for overall accesses
system.l2.overall_mshr_miss_rate::total      0.017771                       # mshr miss rate for overall accesses
system.l2.demand_avg_mshr_miss_latency::.switch_cpus.inst 75560.737005                       # average overall mshr miss latency
system.l2.demand_avg_mshr_miss_latency::.switch_cpus.data 72666.378729                       # average overall mshr miss latency
system.l2.demand_avg_mshr_miss_latency::total 72701.945446                       # average overall mshr miss latency
system.l2.overall_avg_mshr_miss_latency::.switch_cpus.inst 75560.737005                       # average overall mshr miss latency
system.l2.overall_avg_mshr_miss_latency::.switch_cpus.data 72666.378729                       # average overall mshr miss latency
system.l2.overall_avg_mshr_miss_latency::total 72701.945446                       # average overall mshr miss latency
system.l2.replacements                         475359                       # number of replacements
system.l2.WritebackDirty_hits::.writebacks      1637697                       # number of WritebackDirty hits
system.l2.WritebackDirty_hits::total          1637697                       # number of WritebackDirty hits
system.l2.WritebackDirty_accesses::.writebacks      1637697                       # number of WritebackDirty accesses(hits+misses)
system.l2.WritebackDirty_accesses::total      1637697                       # number of WritebackDirty accesses(hits+misses)
system.l2.WritebackClean_hits::.writebacks     21311397                       # number of WritebackClean hits
system.l2.WritebackClean_hits::total         21311397                       # number of WritebackClean hits
system.l2.WritebackClean_accesses::.writebacks     21311397                       # number of WritebackClean accesses(hits+misses)
system.l2.WritebackClean_accesses::total     21311397                       # number of WritebackClean accesses(hits+misses)
system.l2.CleanEvict_mshr_misses::.writebacks          202                       # number of CleanEvict MSHR misses
system.l2.CleanEvict_mshr_misses::total           202                       # number of CleanEvict MSHR misses
system.l2.CleanEvict_mshr_miss_rate::.writebacks          inf                       # mshr miss rate for CleanEvict accesses
system.l2.CleanEvict_mshr_miss_rate::total          inf                       # mshr miss rate for CleanEvict accesses
system.l2.UpgradeReq_hits::.switch_cpus.data            4                       # number of UpgradeReq hits
system.l2.UpgradeReq_hits::total                    4                       # number of UpgradeReq hits
system.l2.UpgradeReq_misses::.switch_cpus.data            9                       # number of UpgradeReq misses
system.l2.UpgradeReq_misses::total                  9                       # number of UpgradeReq misses
system.l2.UpgradeReq_accesses::.switch_cpus.data           13                       # number of UpgradeReq accesses(hits+misses)
system.l2.UpgradeReq_accesses::total               13                       # number of UpgradeReq accesses(hits+misses)
system.l2.UpgradeReq_miss_rate::.switch_cpus.data     0.692308                       # miss rate for UpgradeReq accesses
system.l2.UpgradeReq_miss_rate::total        0.692308                       # miss rate for UpgradeReq accesses
system.l2.UpgradeReq_mshr_misses::.switch_cpus.data            9                       # number of UpgradeReq MSHR misses
system.l2.UpgradeReq_mshr_misses::total             9                       # number of UpgradeReq MSHR misses
system.l2.UpgradeReq_mshr_miss_latency::.switch_cpus.data       179500                       # number of UpgradeReq MSHR miss cycles
system.l2.UpgradeReq_mshr_miss_latency::total       179500                       # number of UpgradeReq MSHR miss cycles
system.l2.UpgradeReq_mshr_miss_rate::.switch_cpus.data     0.692308                       # mshr miss rate for UpgradeReq accesses
system.l2.UpgradeReq_mshr_miss_rate::total     0.692308                       # mshr miss rate for UpgradeReq accesses
system.l2.UpgradeReq_avg_mshr_miss_latency::.switch_cpus.data 19944.444444                       # average UpgradeReq mshr miss latency
system.l2.UpgradeReq_avg_mshr_miss_latency::total 19944.444444                       # average UpgradeReq mshr miss latency
system.l2.ReadExReq_hits::.switch_cpus.data       415882                       # number of ReadExReq hits
system.l2.ReadExReq_hits::total                415882                       # number of ReadExReq hits
system.l2.ReadExReq_misses::.switch_cpus.data       137644                       # number of ReadExReq misses
system.l2.ReadExReq_misses::total              137644                       # number of ReadExReq misses
system.l2.ReadExReq_miss_latency::.switch_cpus.data  10905256867                       # number of ReadExReq miss cycles
system.l2.ReadExReq_miss_latency::total   10905256867                       # number of ReadExReq miss cycles
system.l2.ReadExReq_accesses::.switch_cpus.data       553526                       # number of ReadExReq accesses(hits+misses)
system.l2.ReadExReq_accesses::total            553526                       # number of ReadExReq accesses(hits+misses)
system.l2.ReadExReq_miss_rate::.switch_cpus.data     0.248668                       # miss rate for ReadExReq accesses
system.l2.ReadExReq_miss_rate::total         0.248668                       # miss rate for ReadExReq accesses
system.l2.ReadExReq_avg_miss_latency::.switch_cpus.data 79227.985724                       # average ReadExReq miss latency
system.l2.ReadExReq_avg_miss_latency::total 79227.985724                       # average ReadExReq miss latency
system.l2.ReadExReq_mshr_misses::.switch_cpus.data       137644                       # number of ReadExReq MSHR misses
system.l2.ReadExReq_mshr_misses::total         137644                       # number of ReadExReq MSHR misses
system.l2.ReadExReq_mshr_miss_latency::.switch_cpus.data   9528816867                       # number of ReadExReq MSHR miss cycles
system.l2.ReadExReq_mshr_miss_latency::total   9528816867                       # number of ReadExReq MSHR miss cycles
system.l2.ReadExReq_mshr_miss_rate::.switch_cpus.data     0.248668                       # mshr miss rate for ReadExReq accesses
system.l2.ReadExReq_mshr_miss_rate::total     0.248668                       # mshr miss rate for ReadExReq accesses
system.l2.ReadExReq_avg_mshr_miss_latency::.switch_cpus.data 69227.985724                       # average ReadExReq mshr miss latency
system.l2.ReadExReq_avg_mshr_miss_latency::total 69227.985724                       # average ReadExReq mshr miss latency
system.l2.ReadCleanReq_hits::.switch_cpus.inst     21318391                       # number of ReadCleanReq hits
system.l2.ReadCleanReq_hits::total           21318391                       # number of ReadCleanReq hits
system.l2.ReadCleanReq_misses::.switch_cpus.inst         5829                       # number of ReadCleanReq misses
system.l2.ReadCleanReq_misses::total             5829                       # number of ReadCleanReq misses
system.l2.ReadCleanReq_miss_latency::.switch_cpus.inst    498733536                       # number of ReadCleanReq miss cycles
system.l2.ReadCleanReq_miss_latency::total    498733536                       # number of ReadCleanReq miss cycles
system.l2.ReadCleanReq_accesses::.switch_cpus.inst     21324220                       # number of ReadCleanReq accesses(hits+misses)
system.l2.ReadCleanReq_accesses::total       21324220                       # number of ReadCleanReq accesses(hits+misses)
[...]
system.cpu.itb_walker_cache.tags.tag_accesses            0                       # Number of tag accesses
system.cpu.itb_walker_cache.tags.data_accesses            0                       # Number of data accesses
system.cpu.itb.walker.pwrStateResidencyTicks::UNDEFINED 1755979734000                       # Cumulative time (in ticks) in various power states
system.cpu.dtb_walker_cache.pwrStateResidencyTicks::UNDEFINED 1755979734000                       # Cumulative time (in ticks) in various power states
system.cpu.dtb_walker_cache.blocked_cycles::no_mshrs            0                       # number of cycles access was blocked
system.cpu.dtb_walker_cache.blocked_cycles::no_targets            0                       # number of cycles access was blocked
system.cpu.dtb_walker_cache.blocked::no_mshrs            0                       # number of cycles access was blocked
system.cpu.dtb_walker_cache.blocked::no_targets            0                       # number of cycles access was blocked
system.cpu.dtb_walker_cache.avg_blocked_cycles::no_mshrs          nan                       # average number of cycles each access was blocked
system.cpu.dtb_walker_cache.avg_blocked_cycles::no_targets          nan                       # average number of cycles each access was blocked
system.cpu.dtb_walker_cache.replacements            0                       # number of replacements
system.cpu.dtb_walker_cache.tags.pwrStateResidencyTicks::UNDEFINED 1755979734000                       # Cumulative time (in ticks) in various power states
system.cpu.dtb_walker_cache.tags.tagsinuse            0                       # Cycle average of tags in use
system.cpu.dtb_walker_cache.tags.total_refs            0                       # Total number of references to valid blocks.
system.cpu.dtb_walker_cache.tags.sampled_refs            0                       # Sample count of references to valid blocks.
system.cpu.dtb_walker_cache.tags.avg_refs          nan                       # Average number of references to valid blocks.
system.cpu.dtb_walker_cache.tags.warmup_cycle            0                       # Cycle when the warmup percentage was hit.
system.cpu.dtb_walker_cache.tags.tag_accesses            0                       # Number of tag accesses
system.cpu.dtb_walker_cache.tags.data_accesses            0                       # Number of data accesses
system.cpu.dcache.pwrStateResidencyTicks::UNDEFINED 1755979734000                       # Cumulative time (in ticks) in various power states
system.cpu.dcache.demand_hits::.cpu.data    415096264                       # number of demand (read+write) hits
system.cpu.dcache.demand_hits::.switch_cpus.data    300989548                       # number of demand (read+write) hits
system.cpu.dcache.demand_hits::total        716085812                       # number of demand (read+write) hits
system.cpu.dcache.overall_hits::.cpu.data    415269094                       # number of overall hits
system.cpu.dcache.overall_hits::.switch_cpus.data    301493184                       # number of overall hits
system.cpu.dcache.overall_hits::total       716762278                       # number of overall hits
system.cpu.dcache.demand_misses::.cpu.data      6564117                       # number of demand (read+write) misses
system.cpu.dcache.demand_misses::.switch_cpus.data      5350796                       # number of demand (read+write) misses
system.cpu.dcache.demand_misses::total       11914913                       # number of demand (read+write) misses
system.cpu.dcache.overall_misses::.cpu.data      6600867                       # number of overall misses
system.cpu.dcache.overall_misses::.switch_cpus.data      5368412                       # number of overall misses
system.cpu.dcache.overall_misses::total      11969279                       # number of overall misses
system.cpu.dcache.demand_miss_latency::.switch_cpus.data 103271117729                       # number of demand (read+write) miss cycles
system.cpu.dcache.demand_miss_latency::total 103271117729                       # number of demand (read+write) miss cycles
system.cpu.dcache.overall_miss_latency::.switch_cpus.data 103271117729                       # number of overall miss cycles
system.cpu.dcache.overall_miss_latency::total 103271117729                       # number of overall miss cycles
system.cpu.dcache.demand_accesses::.cpu.data    421660381                       # number of demand (read+write) accesses
system.cpu.dcache.demand_accesses::.switch_cpus.data    306340344                       # number of demand (read+write) accesses
system.cpu.dcache.demand_accesses::total    728000725                       # number of demand (read+write) accesses
system.cpu.dcache.overall_accesses::.cpu.data    421869961                       # number of overall (read+write) accesses
system.cpu.dcache.overall_accesses::.switch_cpus.data    306861596                       # number of overall (read+write) accesses
system.cpu.dcache.overall_accesses::total    728731557                       # number of overall (read+write) accesses
system.cpu.dcache.demand_miss_rate::.cpu.data     0.015567                       # miss rate for demand accesses
system.cpu.dcache.demand_miss_rate::.switch_cpus.data     0.017467                       # miss rate for demand accesses
system.cpu.dcache.demand_miss_rate::total     0.016367                       # miss rate for demand accesses
system.cpu.dcache.overall_miss_rate::.cpu.data     0.015647                       # miss rate for overall accesses
system.cpu.dcache.overall_miss_rate::.switch_cpus.data     0.017495                       # miss rate for overall accesses
system.cpu.dcache.overall_miss_rate::total     0.016425                       # miss rate for overall accesses
system.cpu.dcache.demand_avg_miss_latency::.switch_cpus.data 19300.141087                       # average overall miss latency
system.cpu.dcache.demand_avg_miss_latency::total  8667.383281                       # average overall miss latency
system.cpu.dcache.overall_avg_miss_latency::.switch_cpus.data 19236.809270                       # average overall miss latency
system.cpu.dcache.overall_avg_miss_latency::total  8628.014915                       # average overall miss latency
system.cpu.dcache.blocked_cycles::no_mshrs    196881120                       # number of cycles access was blocked
system.cpu.dcache.blocked_cycles::no_targets            0                       # number of cycles access was blocked
system.cpu.dcache.blocked::no_mshrs           5368412                       # number of cycles access was blocked
system.cpu.dcache.blocked::no_targets               0                       # number of cycles access was blocked
system.cpu.dcache.avg_blocked_cycles::no_mshrs    36.673996                       # average number of cycles each access was blocked
system.cpu.dcache.avg_blocked_cycles::no_targets          nan                       # average number of cycles each access was blocked
system.cpu.dcache.writebacks::.writebacks      4700609                       # number of writebacks
system.cpu.dcache.writebacks::total           4700609                       # number of writebacks
system.cpu.dcache.demand_mshr_misses::.switch_cpus.data      5350796                       # number of demand (read+write) MSHR misses
system.cpu.dcache.demand_mshr_misses::total      5350796                       # number of demand (read+write) MSHR misses
system.cpu.dcache.overall_mshr_misses::.switch_cpus.data      5368412                       # number of overall MSHR misses
system.cpu.dcache.overall_mshr_misses::total      5368412                       # number of overall MSHR misses
system.cpu.dcache.demand_mshr_miss_latency::.switch_cpus.data  97920321729                       # number of demand (read+write) MSHR miss cycles
system.cpu.dcache.demand_mshr_miss_latency::total  97920321729                       # number of demand (read+write) MSHR miss cycles
system.cpu.dcache.overall_mshr_miss_latency::.switch_cpus.data  98445934729                       # number of overall MSHR miss cycles
system.cpu.dcache.overall_mshr_miss_latency::total  98445934729                       # number of overall MSHR miss cycles
system.cpu.dcache.demand_mshr_miss_rate::.switch_cpus.data     0.017467                       # mshr miss rate for demand accesses
system.cpu.dcache.demand_mshr_miss_rate::total     0.007350                       # mshr miss rate for demand accesses
system.cpu.dcache.overall_mshr_miss_rate::.switch_cpus.data     0.017495                       # mshr miss rate for overall accesses
system.cpu.dcache.overall_mshr_miss_rate::total     0.007367                       # mshr miss rate for overall accesses
system.cpu.dcache.demand_avg_mshr_miss_latency::.switch_cpus.data 18300.141087                       # average overall mshr miss latency
system.cpu.dcache.demand_avg_mshr_miss_latency::total 18300.141087                       # average overall mshr miss latency
system.cpu.dcache.overall_avg_mshr_miss_latency::.switch_cpus.data 18337.999157                       # average overall mshr miss latency
system.cpu.dcache.overall_avg_mshr_miss_latency::total 18337.999157                       # average overall mshr miss latency
system.cpu.dcache.replacements               11968754                       # number of replacements
system.cpu.dcache.ReadReq_hits::.cpu.data    263550647                       # number of ReadReq hits
system.cpu.dcache.ReadReq_hits::.switch_cpus.data    210674791                       # number of ReadReq hits
system.cpu.dcache.ReadReq_hits::total       474225438                       # number of ReadReq hits
system.cpu.dcache.ReadReq_misses::.cpu.data      5360230                       # number of ReadReq misses
system.cpu.dcache.ReadReq_misses::.switch_cpus.data      4797257                       # number of ReadReq misses
system.cpu.dcache.ReadReq_misses::total      10157487                       # number of ReadReq misses
system.cpu.dcache.ReadReq_miss_latency::.switch_cpus.data  86587924000                       # number of ReadReq miss cycles
system.cpu.dcache.ReadReq_miss_latency::total  86587924000                       # number of ReadReq miss cycles
system.cpu.dcache.ReadReq_accesses::.cpu.data    268910877                       # number of ReadReq accesses(hits+misses)
system.cpu.dcache.ReadReq_accesses::.switch_cpus.data    215472048                       # number of ReadReq accesses(hits+misses)
system.cpu.dcache.ReadReq_accesses::total    484382925                       # number of ReadReq accesses(hits+misses)
system.cpu.dcache.ReadReq_miss_rate::.cpu.data     0.019933                       # miss rate for ReadReq accesses
system.cpu.dcache.ReadReq_miss_rate::.switch_cpus.data     0.022264                       # miss rate for ReadReq accesses
system.cpu.dcache.ReadReq_miss_rate::total     0.020970                       # miss rate for ReadReq accesses
system.cpu.dcache.ReadReq_avg_miss_latency::.switch_cpus.data 18049.465351                       # average ReadReq miss latency
system.cpu.dcache.ReadReq_avg_miss_latency::total  8524.541946                       # average ReadReq miss latency
system.cpu.dcache.ReadReq_mshr_misses::.switch_cpus.data      4797257                       # number of ReadReq MSHR misses
system.cpu.dcache.ReadReq_mshr_misses::total      4797257                       # number of ReadReq MSHR misses
system.cpu.dcache.ReadReq_mshr_miss_latency::.switch_cpus.data  81790667000                       # number of ReadReq MSHR miss cycles
system.cpu.dcache.ReadReq_mshr_miss_latency::total  81790667000                       # number of ReadReq MSHR miss cycles
system.cpu.dcache.ReadReq_mshr_miss_rate::.switch_cpus.data     0.022264                       # mshr miss rate for ReadReq accesses
system.cpu.dcache.ReadReq_mshr_miss_rate::total     0.009904                       # mshr miss rate for ReadReq accesses
system.cpu.dcache.ReadReq_avg_mshr_miss_latency::.switch_cpus.data 17049.465351                       # average ReadReq mshr miss latency
system.cpu.dcache.ReadReq_avg_mshr_miss_latency::total 17049.465351                       # average ReadReq mshr miss latency
system.cpu.dcache.WriteReq_hits::.cpu.data    151545617                       # number of WriteReq hits
system.cpu.dcache.WriteReq_hits::.switch_cpus.data     90314757                       # number of WriteReq hits
system.cpu.dcache.WriteReq_hits::total      241860374                       # number of WriteReq hits
system.cpu.dcache.WriteReq_misses::.cpu.data      1203887                       # number of WriteReq misses
system.cpu.dcache.WriteReq_misses::.switch_cpus.data       553539                       # number of WriteReq misses
system.cpu.dcache.WriteReq_misses::total      1757426                       # number of WriteReq misses
system.cpu.dcache.WriteReq_miss_latency::.switch_cpus.data  16683193729                       # number of WriteReq miss cycles
system.cpu.dcache.WriteReq_miss_latency::total  16683193729                       # number of WriteReq miss cycles
system.cpu.dcache.WriteReq_accesses::.cpu.data    152749504                       # number of WriteReq accesses(hits+misses)
system.cpu.dcache.WriteReq_accesses::.switch_cpus.data     90868296                       # number of WriteReq accesses(hits+misses)
system.cpu.dcache.WriteReq_accesses::total    243617800                       # number of WriteReq accesses(hits+misses)
system.cpu.dcache.WriteReq_miss_rate::.cpu.data     0.007881                       # miss rate for WriteReq accesses
system.cpu.dcache.WriteReq_miss_rate::.switch_cpus.data     0.006092                       # miss rate for WriteReq accesses
system.cpu.dcache.WriteReq_miss_rate::total     0.007214                       # miss rate for WriteReq accesses
system.cpu.dcache.WriteReq_avg_miss_latency::.switch_cpus.data 30139.147791                       # average WriteReq miss latency
system.cpu.dcache.WriteReq_avg_miss_latency::total  9492.970816                       # average WriteReq miss latency
system.cpu.dcache.WriteReq_mshr_misses::.switch_cpus.data       553539                       # number of WriteReq MSHR misses
system.cpu.dcache.WriteReq_mshr_misses::total       553539                       # number of WriteReq MSHR misses
system.cpu.dcache.WriteReq_mshr_miss_latency::.switch_cpus.data  16129654729                       # number of WriteReq MSHR miss cycles
system.cpu.dcache.WriteReq_mshr_miss_latency::total  16129654729                       # number of WriteReq MSHR miss cycles
system.cpu.dcache.WriteReq_mshr_miss_rate::.switch_cpus.data     0.006092                       # mshr miss rate for WriteReq accesses
system.cpu.dcache.WriteReq_mshr_miss_rate::total     0.002272                       # mshr miss rate for WriteReq accesses
system.cpu.dcache.WriteReq_avg_mshr_miss_latency::.switch_cpus.data 29139.147791                       # average WriteReq mshr miss latency
system.cpu.dcache.WriteReq_avg_mshr_miss_latency::total 29139.147791                       # average WriteReq mshr miss latency
system.cpu.dcache.SoftPFReq_hits::.cpu.data       172830                       # number of SoftPFReq hits
system.cpu.dcache.SoftPFReq_hits::.switch_cpus.data       503636                       # number of SoftPFReq hits
system.cpu.dcache.SoftPFReq_hits::total        676466                       # number of SoftPFReq hits
system.cpu.dcache.SoftPFReq_misses::.cpu.data        36750                       # number of SoftPFReq misses
system.cpu.dcache.SoftPFReq_misses::.switch_cpus.data        17616                       # number of SoftPFReq misses
system.cpu.dcache.SoftPFReq_misses::total        54366                       # number of SoftPFReq misses
system.cpu.dcache.SoftPFReq_accesses::.cpu.data       209580                       # number of SoftPFReq accesses(hits+misses)
system.cpu.dcache.SoftPFReq_accesses::.switch_cpus.data       521252                       # number of SoftPFReq accesses(hits+misses)
system.cpu.dcache.SoftPFReq_accesses::total       730832                       # number of SoftPFReq accesses(hits+misses)
system.cpu.dcache.SoftPFReq_miss_rate::.cpu.data     0.175351                       # miss rate for SoftPFReq accesses
system.cpu.dcache.SoftPFReq_miss_rate::.switch_cpus.data     0.033796                       # miss rate for SoftPFReq accesses
system.cpu.dcache.SoftPFReq_miss_rate::total     0.074389                       # miss rate for SoftPFReq accesses
system.cpu.dcache.SoftPFReq_mshr_misses::.switch_cpus.data        17616                       # number of SoftPFReq MSHR misses
system.cpu.dcache.SoftPFReq_mshr_misses::total        17616                       # number of SoftPFReq MSHR misses
system.cpu.dcache.SoftPFReq_mshr_miss_latency::.switch_cpus.data    525613000                       # number of SoftPFReq MSHR miss cycles
system.cpu.dcache.SoftPFReq_mshr_miss_latency::total    525613000                       # number of SoftPFReq MSHR miss cycles
system.cpu.dcache.SoftPFReq_mshr_miss_rate::.switch_cpus.data     0.033796                       # mshr miss rate for SoftPFReq accesses
system.cpu.dcache.SoftPFReq_mshr_miss_rate::total     0.024104                       # mshr miss rate for SoftPFReq accesses
system.cpu.dcache.SoftPFReq_avg_mshr_miss_latency::.switch_cpus.data 29837.250227                       # average SoftPFReq mshr miss latency
system.cpu.dcache.SoftPFReq_avg_mshr_miss_latency::total 29837.250227                       # average SoftPFReq mshr miss latency
system.cpu.dcache.tags.pwrStateResidencyTicks::UNDEFINED 1755979734000                       # Cumulative time (in ticks) in various power states
system.cpu.dcache.tags.tagsinuse           511.997903                       # Cycle average of tags in use
system.cpu.dcache.tags.total_refs           551935894                       # Total number of references to valid blocks.
system.cpu.dcache.tags.sampled_refs          11968754                       # Sample count of references to valid blocks.
system.cpu.dcache.tags.avg_refs             46.114733                       # Average number of references to valid blocks.
system.cpu.dcache.tags.warmup_cycle              1000                       # Cycle when the warmup percentage was hit.
system.cpu.dcache.tags.occ_blocks::.cpu.data   343.793426                       # Average occupied blocks per requestor
system.cpu.dcache.tags.occ_blocks::.switch_cpus.data   168.204477                       # Average occupied blocks per requestor
system.cpu.dcache.tags.occ_percent::.cpu.data     0.671472                       # Average percentage of cache occupancy
system.cpu.dcache.tags.occ_percent::.switch_cpus.data     0.328524                       # Average percentage of cache occupancy
system.cpu.dcache.tags.occ_percent::total     0.999996                       # Average percentage of cache occupancy
system.cpu.dcache.tags.occ_task_id_blocks::1024          512                       # Occupied blocks per task id
system.cpu.dcache.tags.age_task_id_blocks_1024::0           44                       # Occupied blocks per task id
system.cpu.dcache.tags.age_task_id_blocks_1024::1           98                       # Occupied blocks per task id
system.cpu.dcache.tags.age_task_id_blocks_1024::2          328                       # Occupied blocks per task id
system.cpu.dcache.tags.age_task_id_blocks_1024::3           14                       # Occupied blocks per task id
system.cpu.dcache.tags.age_task_id_blocks_1024::4           28                       # Occupied blocks per task id
system.cpu.dcache.tags.occ_task_id_percent::1024            1                       # Percentage of cache occupancy per task id
system.cpu.dcache.tags.tag_accesses        2926895494                       # Number of tag accesses
system.cpu.dcache.tags.data_accesses       2926895494                       # Number of data accesses

---------- End Simulation Statistics   ----------
