
---------- Begin Simulation Statistics ----------
final_tick                               1402635923500                       # Number of ticks from beginning of simulation (restored from checkpoints and never reset)
host_inst_rate                                 115914                       # Simulator instruction rate (inst/s)
host_mem_usage                                4396068                       # Number of bytes of host memory used
host_op_rate                                   198312                       # Simulator op (including micro ops) rate (op/s)
host_seconds                                 12940.64                       # Real time elapsed on the host
host_tick_rate                               27837170                       # Simulator tick rate (ticks/s)
sim_freq                                 1000000000000                       # Frequency of simulated ticks
sim_insts                                  1500000001                       # Number of instructions simulated
sim_ops                                    2566282482                       # Number of ops (including micro ops) simulated
sim_seconds                                  0.360231                       # Number of seconds simulated
sim_ticks                                360230815000                       # Number of ticks simulated
system.cpu.committedInsts                           0                       # Number of instructions committed
system.cpu.committedOps                             0                       # Number of ops (including micro ops) committed
system.cpu.dtb.rdAccesses                           0                       # TLB accesses on read requests
system.cpu.dtb.rdMisses                             0                       # TLB misses on read requests
system.cpu.dtb.wrAccesses                           0                       # TLB accesses on write requests
system.cpu.dtb.wrMisses                             0                       # TLB misses on write requests
system.cpu.idle_fraction                            0                       # Percentage of idle cycles
system.cpu.itb.rdAccesses                           0                       # TLB accesses on read requests
system.cpu.itb.rdMisses                             0                       # TLB misses on read requests
system.cpu.itb.wrAccesses                           0                       # TLB accesses on write requests
system.cpu.itb.wrMisses                             0                       # TLB misses on write requests
system.cpu.not_idle_fraction                        1                       # Percentage of non-idle cycles
system.cpu.numCycles                                0                       # number of cpu cycles simulated
system.cpu.numWorkItemsCompleted                    0                       # number of work items this cpu completed
system.cpu.numWorkItemsStarted                      0                       # number of work items this cpu started
system.cpu.num_busy_cycles                          0                       # Number of busy cycles
system.cpu.num_conditional_control_insts            0                       # number of instructions that are conditional controls
system.cpu.num_fp_alu_accesses                      0                       # Number of float alu accesses
system.cpu.num_fp_insts                             0                       # number of float instructions
system.cpu.num_fp_register_reads                    0                       # number of times the floating registers were read
system.cpu.num_fp_register_writes                   0                       # number of times the floating registers were written
system.cpu.num_func_calls                           0                       # number of times a function call or return occured
system.cpu.num_idle_cycles                          0                       # Number of idle cycles
system.cpu.num_int_alu_accesses                     0                       # Number of integer alu accesses
system.cpu.num_int_insts                            0                       # number of integer instructions
system.cpu.num_int_register_reads                   0                       # number of times the integer registers were read
system.cpu.num_int_register_writes                  0                       # number of times the integer registers were written
system.cpu.num_load_insts                           0                       # Number of load instructions
system.cpu.num_mem_refs                             0                       # number of memory refs
system.cpu.num_store_insts                          0                       # Number of store instructions
system.cpu.num_vec_alu_accesses                     0                       # Number of vector alu accesses
system.cpu.num_vec_insts                            0                       # number of vector instructions
system.cpu.num_vec_register_reads                   0                       # number of times the vector registers were read
system.cpu.num_vec_register_writes                  0                       # number of times the vector registers were written
system.cpu.op_class::No_OpClass                     0                       # Class of executed instruction
system.cpu.op_class::IntAlu                         0                       # Class of executed instruction
system.cpu.op_class::IntMult                        0                       # Class of executed instruction
system.cpu.op_class::IntDiv                         0                       # Class of executed instruction
system.cpu.op_class::FloatAdd                       0                       # Class of executed instruction
system.cpu.op_class::FloatCmp                       0                       # Class of executed instruction
system.cpu.op_class::FloatCvt                       0                       # Class of executed instruction
system.cpu.op_class::FloatMult                      0                       # Class of executed instruction
system.cpu.op_class::FloatMultAcc                   0                       # Class of executed instruction
system.cpu.op_class::FloatDiv                       0                       # Class of executed instruction
system.cpu.op_class::FloatMisc                      0                       # Class of executed instruction
system.cpu.op_class::FloatSqrt                      0                       # Class of executed instruction
system.cpu.op_class::SimdAdd                        0                       # Class of executed instruction
system.cpu.op_class::SimdAddAcc                     0                       # Class of executed instruction
system.cpu.op_class::SimdAlu                        0                       # Class of executed instruction
system.cpu.op_class::SimdCmp                        0                       # Class of executed instruction
system.cpu.op_class::SimdCvt                        0                       # Class of executed instruction
system.cpu.op_class::SimdMisc                       0                       # Class of executed instruction
system.cpu.op_class::SimdMult                       0                       # Class of executed instruction
system.cpu.op_class::SimdMultAcc                    0                       # Class of executed instruction
system.cpu.op_class::SimdShift                      0                       # Class of executed instruction
system.cpu.op_class::SimdShiftAcc                   0                       # Class of executed instruction
system.cpu.op_class::SimdDiv                        0                       # Class of executed instruction
system.cpu.op_class::SimdSqrt                       0                       # Class of executed instruction
system.cpu.op_class::SimdFloatAdd                   0                       # Class of executed instruction
system.cpu.op_class::SimdFloatAlu                   0                       # Class of executed instruction
system.cpu.op_class::SimdFloatCmp                   0                       # Class of executed instruction
system.cpu.op_class::SimdFloatCvt                   0                       # Class of executed instruction
system.cpu.op_class::SimdFloatDiv                   0                       # Class of executed instruction
system.cpu.op_class::SimdFloatMisc                  0                       # Class of executed instruction
system.cpu.op_class::SimdFloatMult                  0                       # Class of executed instruction
system.cpu.op_class::SimdFloatMultAcc               0                       # Class of executed instruction
system.cpu.op_class::SimdFloatSqrt                  0                       # Class of executed instruction
system.cpu.op_class::SimdReduceAdd                  0                       # Class of executed instruction
system.cpu.op_class::SimdReduceAlu                  0                       # Class of executed instruction
system.cpu.op_class::SimdReduceCmp                  0                       # Class of executed instruction
system.cpu.op_class::SimdFloatReduceAdd             0                       # Class of executed instruction
system.cpu.op_class::SimdFloatReduceCmp             0                       # Class of executed instruction
system.cpu.op_class::SimdAes                        0                       # Class of executed instruction
system.cpu.op_class::SimdAesMix                     0                       # Class of executed instruction
system.cpu.op_class::SimdSha1Hash                   0                       # Class of executed instruction
system.cpu.op_class::SimdSha1Hash2                  0                       # Class of executed instruction
system.cpu.op_class::SimdSha256Hash                 0                       # Class of executed instruction
system.cpu.op_class::SimdSha256Hash2                0                       # Class of executed instruction
system.cpu.op_class::SimdShaSigma2                  0                       # Class of executed instruction
system.cpu.op_class::SimdShaSigma3                  0                       # Class of executed instruction
system.cpu.op_class::SimdPredAlu                    0                       # Class of executed instruction
system.cpu.op_class::MemRead                        0                       # Class of executed instruction
system.cpu.op_class::MemWrite                       0                       # Class of executed instruction
system.cpu.op_class::FloatMemRead                   0                       # Class of executed instruction
system.cpu.op_class::FloatMemWrite                  0                       # Class of executed instruction
system.cpu.op_class::IprAccess                      0                       # Class of executed instruction
system.cpu.op_class::InstPrefetch                   0                       # Class of executed instruction
system.cpu.op_class::total                          0                       # Class of executed instruction
system.cpu.workload.numSyscalls                     3                       # Number of system calls
system.membus.snoop_filter.hit_multi_requests            0                       # Number of requests hitting in the snoop filter with multiple (>1) holders of the requested data.
system.membus.snoop_filter.hit_multi_snoops            0                       # Number of snoops hitting in the snoop filter with multiple (>1) holders of the requested data.
system.membus.snoop_filter.hit_single_requests       917673                       # Number of requests hitting in the snoop filter with a single holder of the requested data.
system.membus.snoop_filter.hit_single_snoops            0                       # Number of snoops hitting in the snoop filter with a single holder of the requested data.
system.membus.snoop_filter.tot_requests       1835329                       # Total number of requests made to the snoop filter.
system.membus.snoop_filter.tot_snoops               0                       # Total number of snoops made to the snoop filter.
system.switch_cpus.branchPred.BTBCorrect            0                       # Number of correct BTB predictions (this stat may not work properly.
system.switch_cpus.branchPred.BTBHitPct      0.000000                       # BTB Hit Percentage
system.switch_cpus.branchPred.BTBHits               0                       # Number of BTB hits
system.switch_cpus.branchPred.BTBLookups    153439791                       # Number of BTB lookups
system.switch_cpus.branchPred.RASInCorrect         7214                       # Number of incorrect RAS predictions.
system.switch_cpus.branchPred.condIncorrect     21672991                       # Number of conditional branches incorrect
system.switch_cpus.branchPred.condPredicted    131258341                       # Number of conditional branches predicted
system.switch_cpus.branchPred.indirectHits     43505725                       # Number of indirect target hits.
system.switch_cpus.branchPred.indirectLookups    153439791                       # Number of indirect predictor lookups.
system.switch_cpus.branchPred.indirectMisses    109934066                       # Number of indirect misses.
system.switch_cpus.branchPred.lookups       176190402                       # Number of BP lookups
system.switch_cpus.branchPred.usedRAS        17529007                       # Number of times the RAS was used to get a target.
system.switch_cpus.branchPredindirectMispredicted     18403236                       # Number of mispredicted indirect branches.
system.switch_cpus.cc_regfile_reads         475922780                       # number of cc regfile reads
system.switch_cpus.cc_regfile_writes        440889964                       # number of cc regfile writes
system.switch_cpus.commit.amos                      0                       # Number of atomic instructions committed
system.switch_cpus.commit.branchMispredicts     21673807                       # The number of times a branch was mispredicted
system.switch_cpus.commit.branches           75086694                       # Number of branches committed
system.switch_cpus.commit.bw_lim_events      40470951                       # number cycles where commit BW limit reached
system.switch_cpus.commit.commitNonSpecStalls            3                       # The number of times commit has been forced to stall to communicate backwards
system.switch_cpus.commit.commitSquashedInsts    626474356                       # The number of squashed insts skipped by commit
system.switch_cpus.commit.committedInsts    500000001                       # Number of instructions committed
system.switch_cpus.commit.committedOps      839678819                       # Number of ops (including micro ops) committed
system.switch_cpus.commit.committed_per_cycle::samples    592709489                       # Number of insts commited each cycle
system.switch_cpus.commit.committed_per_cycle::mean     1.416679                       # Number of insts commited each cycle
system.switch_cpus.commit.committed_per_cycle::stdev     2.344063                       # Number of insts commited each cycle
system.switch_cpus.commit.committed_per_cycle::underflows            0      0.00%      0.00% # Number of insts commited each cycle
system.switch_cpus.commit.committed_per_cycle::0    345042812     58.21%     58.21% # Number of insts commited each cycle
system.switch_cpus.commit.committed_per_cycle::1     81476198     13.75%     71.96% # Number of insts commited each cycle
system.switch_cpus.commit.committed_per_cycle::2     41966219      7.08%     79.04% # Number of insts commited each cycle
system.switch_cpus.commit.committed_per_cycle::3     34743341      5.86%     84.90% # Number of insts commited each cycle
system.switch_cpus.commit.committed_per_cycle::4     21355030      3.60%     88.51% # Number of insts commited each cycle
system.switch_cpus.commit.committed_per_cycle::5     11424808      1.93%     90.43% # Number of insts commited each cycle
system.switch_cpus.commit.committed_per_cycle::6      9882521      1.67%     92.10% # Number of insts commited each cycle
system.switch_cpus.commit.committed_per_cycle::7      6347609      1.07%     93.17% # Number of insts commited each cycle
system.switch_cpus.commit.committed_per_cycle::8     40470951      6.83%    100.00% # Number of insts commited each cycle
system.switch_cpus.commit.committed_per_cycle::overflows            0      0.00%    100.00% # Number of insts commited each cycle
system.switch_cpus.commit.committed_per_cycle::min_value            0                       # Number of insts commited each cycle
system.switch_cpus.commit.committed_per_cycle::max_value            8                       # Number of insts commited each cycle
system.switch_cpus.commit.committed_per_cycle::total    592709489                       # Number of insts commited each cycle
system.switch_cpus.commit.fp_insts             818338                       # Number of committed floating point instructions.
system.switch_cpus.commit.function_calls     10052312                       # Number of function calls committed.
system.switch_cpus.commit.int_insts         836921134                       # Number of committed integer instructions.
system.switch_cpus.commit.loads             123874952                       # Number of loads committed
system.switch_cpus.commit.membars                   0                       # Number of memory barriers committed
system.switch_cpus.commit.op_class_0::No_OpClass      2112896      0.25%      0.25% # Class of committed instruction
system.switch_cpus.commit.op_class_0::IntAlu    650240730     77.44%     77.69% # Class of committed instruction
system.switch_cpus.commit.op_class_0::IntMult      6520113      0.78%     78.47% # Class of committed instruction
system.switch_cpus.commit.op_class_0::IntDiv      1503927      0.18%     78.65% # Class of committed instruction
system.switch_cpus.commit.op_class_0::FloatAdd           60      0.00%     78.65% # Class of committed instruction
system.switch_cpus.commit.op_class_0::FloatCmp            0      0.00%     78.65% # Class of committed instruction
system.switch_cpus.commit.op_class_0::FloatCvt            0      0.00%     78.65% # Class of committed instruction
system.switch_cpus.commit.op_class_0::FloatMult            0      0.00%     78.65% # Class of committed instruction
system.switch_cpus.commit.op_class_0::FloatMultAcc            0      0.00%     78.65% # Class of committed instruction
system.switch_cpus.commit.op_class_0::FloatDiv            0      0.00%     78.65% # Class of committed instruction
system.switch_cpus.commit.op_class_0::FloatMisc            0      0.00%     78.65% # Class of committed instruction
system.switch_cpus.commit.op_class_0::FloatSqrt            0      0.00%     78.65% # Class of committed instruction
system.switch_cpus.commit.op_class_0::SimdAdd            0      0.00%     78.65% # Class of committed instruction
system.switch_cpus.commit.op_class_0::SimdAddAcc            0      0.00%     78.65% # Class of committed instruction
system.switch_cpus.commit.op_class_0::SimdAlu       204480      0.02%     78.67% # Class of committed instruction
system.switch_cpus.commit.op_class_0::SimdCmp            0      0.00%     78.67% # Class of committed instruction
system.switch_cpus.commit.op_class_0::SimdCvt          292      0.00%     78.67% # Class of committed instruction
system.switch_cpus.commit.op_class_0::SimdMisc          577      0.00%     78.67% # Class of committed instruction
system.switch_cpus.commit.op_class_0::SimdMult            0      0.00%     78.67% # Class of committed instruction
system.switch_cpus.commit.op_class_0::SimdMultAcc            0      0.00%     78.67% # Class of committed instruction
system.switch_cpus.commit.op_class_0::SimdShift            0      0.00%     78.67% # Class of committed instruction
system.switch_cpus.commit.op_class_0::SimdShiftAcc            0      0.00%     78.67% # Class of committed instruction
system.switch_cpus.commit.op_class_0::SimdDiv            0      0.00%     78.67% # Class of committed instruction
system.switch_cpus.commit.op_class_0::SimdSqrt            0      0.00%     78.67% # Class of committed instruction
system.switch_cpus.commit.op_class_0::SimdFloatAdd            0      0.00%     78.67% # Class of committed instruction
system.switch_cpus.commit.op_class_0::SimdFloatAlu            0      0.00%     78.67% # Class of committed instruction
system.switch_cpus.commit.op_class_0::SimdFloatCmp            0      0.00%     78.67% # Class of committed instruction
system.switch_cpus.commit.op_class_0::SimdFloatCvt            0      0.00%     78.67% # Class of committed instruction
system.switch_cpus.commit.op_class_0::SimdFloatDiv            0      0.00%     78.67% # Class of committed instruction
system.switch_cpus.commit.op_class_0::SimdFloatMisc            0      0.00%     78.67% # Class of committed instruction
system.switch_cpus.commit.op_class_0::SimdFloatMult            0      0.00%     78.67% # Class of committed instruction
system.switch_cpus.commit.op_class_0::SimdFloatMultAcc            0      0.00%     78.67% # Class of committed instruction
system.switch_cpus.commit.op_class_0::SimdFloatSqrt            0      0.00%     78.67% # Class of committed instruction
system.switch_cpus.commit.op_class_0::SimdReduceAdd            0      0.00%     78.67% # Class of committed instruction
system.switch_cpus.commit.op_class_0::SimdReduceAlu            0      0.00%     78.67% # Class of committed instruction
system.switch_cpus.commit.op_class_0::SimdReduceCmp            0      0.00%     78.67% # Class of committed instruction
system.switch_cpus.commit.op_class_0::SimdFloatReduceAdd            0      0.00%     78.67% # Class of committed instruction
system.switch_cpus.commit.op_class_0::SimdFloatReduceCmp            0      0.00%     78.67% # Class of committed instruction
system.switch_cpus.commit.op_class_0::SimdAes            0      0.00%     78.67% # Class of committed instruction
system.switch_cpus.commit.op_class_0::SimdAesMix            0      0.00%     78.67% # Class of committed instruction
system.switch_cpus.commit.op_class_0::SimdSha1Hash            0      0.00%     78.67% # Class of committed instruction
system.switch_cpus.commit.op_class_0::SimdSha1Hash2            0      0.00%     78.67% # Class of committed instruction
system.switch_cpus.commit.op_class_0::SimdSha256Hash            0      0.00%     78.67% # Class of committed instruction
system.switch_cpus.commit.op_class_0::SimdSha256Hash2            0      0.00%     78.67% # Class of committed instruction
system.switch_cpus.commit.op_class_0::SimdShaSigma2            0      0.00%     78.67% # Class of committed instruction
system.switch_cpus.commit.op_class_0::SimdShaSigma3            0      0.00%     78.67% # Class of committed instruction
system.switch_cpus.commit.op_class_0::SimdPredAlu            0      0.00%     78.67% # Class of committed instruction
system.switch_cpus.commit.op_class_0::MemRead    123874733     14.75%     93.42% # Class of committed instruction
system.switch_cpus.commit.op_class_0::MemWrite     54608255      6.50%     99.93% # Class of committed instruction
system.switch_cpus.commit.op_class_0::FloatMemRead          219      0.00%     99.93% # Class of committed instruction
system.switch_cpus.commit.op_class_0::FloatMemWrite       612536      0.07%    100.00% # Class of committed instruction
system.switch_cpus.commit.op_class_0::IprAccess            0      0.00%    100.00% # Class of committed instruction
system.switch_cpus.commit.op_class_0::InstPrefetch            0      0.00%    100.00% # Class of committed instruction
system.switch_cpus.commit.op_class_0::total    839678818                       # Class of committed instruction
system.switch_cpus.commit.refs              179095743                       # Number of memory references committed
system.switch_cpus.commit.swp_count                 0                       # Number of s/w prefetches committed
system.switch_cpus.commit.vec_insts                 0                       # Number of committed Vector instructions.
system.switch_cpus.committedInsts           500000000                       # Number of Instructions Simulated
system.switch_cpus.committedOps             839678818                       # Number of Ops (including micro ops) Simulated
system.switch_cpus.cpi                       1.440923                       # CPI: Cycles Per Instruction
system.switch_cpus.cpi_total                 1.440923                       # CPI: Total CPI of All Threads
system.switch_cpus.decode.BlockedCycles     140744071                       # Number of cycles decode is blocked
system.switch_cpus.decode.DecodedInsts     1737486656                       # Number of instructions handled by decode
system.switch_cpus.decode.IdleCycles        270453901                       # Number of cycles decode is idle
system.switch_cpus.decode.RunCycles         234011437                       # Number of cycles decode is running
system.switch_cpus.decode.SquashCycles       21862150                       # Number of cycles decode is squashing
system.switch_cpus.decode.UnblockCycles      20886759                       # Number of cycles decode is unblocking
system.switch_cpus.dtb.rdAccesses           181653295                       # TLB accesses on read requests
system.switch_cpus.dtb.rdMisses                287973                       # TLB misses on read requests
system.switch_cpus.dtb.wrAccesses            70029219                       # TLB accesses on write requests
system.switch_cpus.dtb.wrMisses                 26077                       # TLB misses on write requests
system.switch_cpus.fetch.Branches           176190402                       # Number of branches that fetch encountered
system.switch_cpus.fetch.CacheLines         131084284                       # Number of cache lines fetched
system.switch_cpus.fetch.Cycles             357793543                       # Number of cycles fetch has run and was not squashing or blocked
system.switch_cpus.fetch.IcacheSquashes       9583565                       # Number of outstanding Icache misses that were squashed
system.switch_cpus.fetch.IcacheWaitRetryStallCycles         1628                       # Number of stall cycles due to full MSHR
system.switch_cpus.fetch.Insts             1094748287                       # Number of instructions fetch has processed
system.switch_cpus.fetch.MiscStallCycles         1108                       # Number of cycles fetch has spent waiting on interrupts, or bad addresses, or out of MSHRs
system.switch_cpus.fetch.PendingTrapStallCycles         5463                       # Number of stall cycles due to pending traps
system.switch_cpus.fetch.SquashCycles        43724300                       # Number of cycles fetch has spent squashing
system.switch_cpus.fetch.branchRate          0.244552                       # Number of branch fetches per cycle
system.switch_cpus.fetch.icacheStallCycles    308294433                       # Number of cycles fetch is stalled on an Icache miss
system.switch_cpus.fetch.predictedBranches     61034732                       # Number of branches that fetch has predicted taken
system.switch_cpus.fetch.rate                1.519509                       # Number of inst fetches per cycle
system.switch_cpus.fetch.rateDist::samples    687958325                       # Number of instructions fetched each cycle (Total)
system.switch_cpus.fetch.rateDist::mean      2.710132                       # Number of instructions fetched each cycle (Total)
system.switch_cpus.fetch.rateDist::stdev     3.491242                       # Number of instructions fetched each cycle (Total)
system.switch_cpus.fetch.rateDist::underflows            0      0.00%      0.00% # Number of instructions fetched each cycle (Total)
system.switch_cpus.fetch.rateDist::0        398283600     57.89%     57.89% # Number of instructions fetched each cycle (Total)
system.switch_cpus.fetch.rateDist::1         14858263      2.16%     60.05% # Number of instructions fetched each cycle (Total)
system.switch_cpus.fetch.rateDist::2         11451664      1.66%     61.72% # Number of instructions fetched each cycle (Total)
system.switch_cpus.fetch.rateDist::3         17228329      2.50%     64.22% # Number of instructions fetched each cycle (Total)
system.switch_cpus.fetch.rateDist::4         14583941      2.12%     66.34% # Number of instructions fetched each cycle (Total)
system.switch_cpus.fetch.rateDist::5         28064593      4.08%     70.42% # Number of instructions fetched each cycle (Total)
system.switch_cpus.fetch.rateDist::6         18827076      2.74%     73.16% # Number of instructions fetched each cycle (Total)
system.switch_cpus.fetch.rateDist::7         13896921      2.02%     75.18% # Number of instructions fetched each cycle (Total)
system.switch_cpus.fetch.rateDist::8        170763938     24.82%    100.00% # Number of instructions fetched each cycle (Total)
system.switch_cpus.fetch.rateDist::overflows            0      0.00%    100.00% # Number of instructions fetched each cycle (Total)
system.switch_cpus.fetch.rateDist::min_value            0                       # Number of instructions fetched each cycle (Total)
system.switch_cpus.fetch.rateDist::max_value            8                       # Number of instructions fetched each cycle (Total)
system.switch_cpus.fetch.rateDist::total    687958325                       # Number of instructions fetched each cycle (Total)
system.switch_cpus.fp_regfile_reads           1102460                       # number of floating regfile reads
system.switch_cpus.fp_regfile_writes           236796                       # number of floating regfile writes
system.switch_cpus.idleCycles                32503305                       # Total number of cycles that the CPU has spent unscheduled due to idling
system.switch_cpus.iew.branchMispredicts     28767461                       # Number of branch mispredicts detected at execute
system.switch_cpus.iew.exec_branches        101245613                       # Number of branches executed
system.switch_cpus.iew.exec_nop                     0                       # number of nop insts executed
system.switch_cpus.iew.exec_rate             1.653448                       # Inst execution rate
system.switch_cpus.iew.exec_refs            251701263                       # number of memory reference insts executed
system.switch_cpus.iew.exec_stores           70029202                       # Number of stores executed
system.switch_cpus.iew.exec_swp                     0                       # number of swp insts executed
system.switch_cpus.iew.iewBlockCycles        94232675                       # Number of cycles IEW is blocking
system.switch_cpus.iew.iewDispLoadInsts     219811510                       # Number of dispatched load instructions
system.switch_cpus.iew.iewDispNonSpecInsts           18                       # Number of dispatched non-speculative instructions
system.switch_cpus.iew.iewDispSquashedInsts      2773109                       # Number of squashed instructions skipped by dispatch
system.switch_cpus.iew.iewDispStoreInsts     95079907                       # Number of dispatched store instructions
system.switch_cpus.iew.iewDispatchedInsts   1466131186                       # Number of instructions dispatched to IQ
system.switch_cpus.iew.iewExecLoadInsts     181672061                       # Number of load instructions executed
system.switch_cpus.iew.iewExecSquashedInsts     48175293                       # Number of squashed instructions skipped in execute
system.switch_cpus.iew.iewExecutedInsts    1191245887                       # Number of executed instructions
system.switch_cpus.iew.iewIQFullEvents         698803                       # Number of times the IQ has become full, causing a stall
system.switch_cpus.iew.iewIdleCycles                0                       # Number of cycles IEW is idle
system.switch_cpus.iew.iewLSQFullEvents        462207                       # Number of times the LSQ has become full, causing a stall
system.switch_cpus.iew.iewSquashCycles       21862150                       # Number of cycles IEW is squashing
system.switch_cpus.iew.iewUnblockCycles       1349439                       # Number of cycles IEW is unblocking
system.switch_cpus.iew.lsq.thread0.blockedLoads            0                       # Number of blocked loads due to partial load-store forwarding
system.switch_cpus.iew.lsq.thread0.cacheBlocked         7644                       # Number of times an access to memory failed due to the cache being blocked
system.switch_cpus.iew.lsq.thread0.forwLoads     17095160                       # Number of loads that had data forwarded from stores
system.switch_cpus.iew.lsq.thread0.ignoredResponses       367393                       # Number of memory responses ignored because the instruction is squashed
system.switch_cpus.iew.lsq.thread0.invAddrLoads            0                       # Number of loads ignored due to an invalid address
system.switch_cpus.iew.lsq.thread0.invAddrSwpfs            0                       # Number of software prefetches ignored due to an invalid address
system.switch_cpus.iew.lsq.thread0.memOrderViolation       220306                       # Number of memory ordering violations
system.switch_cpus.iew.lsq.thread0.rescheduledLoads        54757                       # Number of loads that were rescheduled
system.switch_cpus.iew.lsq.thread0.squashedLoads     95936552                       # Number of loads squashed
system.switch_cpus.iew.lsq.thread0.squashedStores     39859115                       # Number of stores squashed
system.switch_cpus.iew.memOrderViolationEvents       220306                       # Number of memory order violations
system.switch_cpus.iew.predictedNotTakenIncorrect     25610864                       # Number of branches that were predicted not taken incorrectly
system.switch_cpus.iew.predictedTakenIncorrect      3156597                       # Number of branches that were predicted taken incorrectly
system.switch_cpus.iew.wb_consumers        1386212587                       # num instructions consuming a value
system.switch_cpus.iew.wb_count            1168797404                       # cumulative count of insts written-back
system.switch_cpus.iew.wb_fanout             0.627398                       # average fanout of values written-back
system.switch_cpus.iew.wb_producers         869706671                       # num instructions producing a value
system.switch_cpus.iew.wb_rate               1.622290                       # insts written-back per cycle
system.switch_cpus.iew.wb_sent             1177001754                       # cumulative count of insts sent to commit
system.switch_cpus.int_regfile_reads       1784569461                       # number of integer regfile reads
system.switch_cpus.int_regfile_writes      1004237826                       # number of integer regfile writes
system.switch_cpus.ipc                       0.693999                       # IPC: Instructions Per Cycle
system.switch_cpus.ipc_total                 0.693999                       # IPC: Total IPC of All Threads
system.switch_cpus.iq.FU_type_0::No_OpClass     10922998      0.88%      0.88% # Type of FU issued
system.switch_cpus.iq.FU_type_0::IntAlu     952915586     76.88%     77.77% # Type of FU issued
system.switch_cpus.iq.FU_type_0::IntMult      6893803      0.56%     78.32% # Type of FU issued
system.switch_cpus.iq.FU_type_0::IntDiv       1541941      0.12%     78.45% # Type of FU issued
system.switch_cpus.iq.FU_type_0::FloatAdd           65      0.00%     78.45% # Type of FU issued
system.switch_cpus.iq.FU_type_0::FloatCmp            0      0.00%     78.45% # Type of FU issued
system.switch_cpus.iq.FU_type_0::FloatCvt            0      0.00%     78.45% # Type of FU issued
system.switch_cpus.iq.FU_type_0::FloatMult            0      0.00%     78.45% # Type of FU issued
system.switch_cpus.iq.FU_type_0::FloatMultAcc            0      0.00%     78.45% # Type of FU issued
system.switch_cpus.iq.FU_type_0::FloatDiv            0      0.00%     78.45% # Type of FU issued
system.switch_cpus.iq.FU_type_0::FloatMisc            0      0.00%     78.45% # Type of FU issued
system.switch_cpus.iq.FU_type_0::FloatSqrt            0      0.00%     78.45% # Type of FU issued
system.switch_cpus.iq.FU_type_0::SimdAdd            0      0.00%     78.45% # Type of FU issued
system.switch_cpus.iq.FU_type_0::SimdAddAcc            0      0.00%     78.45% # Type of FU issued
system.switch_cpus.iq.FU_type_0::SimdAlu       237590      0.02%     78.47% # Type of FU issued
system.switch_cpus.iq.FU_type_0::SimdCmp            0      0.00%     78.47% # Type of FU issued
system.switch_cpus.iq.FU_type_0::SimdCvt          300      0.00%     78.47% # Type of FU issued
system.switch_cpus.iq.FU_type_0::SimdMisc          614      0.00%     78.47% # Type of FU issued
system.switch_cpus.iq.FU_type_0::SimdMult            0      0.00%     78.47% # Type of FU issued
system.switch_cpus.iq.FU_type_0::SimdMultAcc            0      0.00%     78.47% # Type of FU issued
system.switch_cpus.iq.FU_type_0::SimdShift            0      0.00%     78.47% # Type of FU issued
system.switch_cpus.iq.FU_type_0::SimdShiftAcc            0      0.00%     78.47% # Type of FU issued
system.switch_cpus.iq.FU_type_0::SimdDiv            0      0.00%     78.47% # Type of FU issued
system.switch_cpus.iq.FU_type_0::SimdSqrt            0      0.00%     78.47% # Type of FU issued
system.switch_cpus.iq.FU_type_0::SimdFloatAdd            0      0.00%     78.47% # Type of FU issued
system.switch_cpus.iq.FU_type_0::SimdFloatAlu            0      0.00%     78.47% # Type of FU issued
system.switch_cpus.iq.FU_type_0::SimdFloatCmp            0      0.00%     78.47% # Type of FU issued
system.switch_cpus.iq.FU_type_0::SimdFloatCvt            1      0.00%     78.47% # Type of FU issued
system.switch_cpus.iq.FU_type_0::SimdFloatDiv            0      0.00%     78.47% # Type of FU issued
system.switch_cpus.iq.FU_type_0::SimdFloatMisc            0      0.00%     78.47% # Type of FU issued
system.switch_cpus.iq.FU_type_0::SimdFloatMult            0      0.00%     78.47% # Type of FU issued
system.switch_cpus.iq.FU_type_0::SimdFloatMultAcc            0      0.00%     78.47% # Type of FU issued
system.switch_cpus.iq.FU_type_0::SimdFloatSqrt            0      0.00%     78.47% # Type of FU issued
system.switch_cpus.iq.FU_type_0::SimdReduceAdd            0      0.00%     78.47% # Type of FU issued
system.switch_cpus.iq.FU_type_0::SimdReduceAlu            0      0.00%     78.47% # Type of FU issued
system.switch_cpus.iq.FU_type_0::SimdReduceCmp            0      0.00%     78.47% # Type of FU issued
system.switch_cpus.iq.FU_type_0::SimdFloatReduceAdd            0      0.00%     78.47% # Type of FU issued
system.switch_cpus.iq.FU_type_0::SimdFloatReduceCmp            0      0.00%     78.47% # Type of FU issued
system.switch_cpus.iq.FU_type_0::SimdAes            0      0.00%     78.47% # Type of FU issued
system.switch_cpus.iq.FU_type_0::SimdAesMix            0      0.00%     78.47% # Type of FU issued
system.switch_cpus.iq.FU_type_0::SimdSha1Hash            0      0.00%     78.47% # Type of FU issued
system.switch_cpus.iq.FU_type_0::SimdSha1Hash2            0      0.00%     78.47% # Type of FU issued
system.switch_cpus.iq.FU_type_0::SimdSha256Hash            0      0.00%     78.47% # Type of FU issued
system.switch_cpus.iq.FU_type_0::SimdSha256Hash2            0      0.00%     78.47% # Type of FU issued
system.switch_cpus.iq.FU_type_0::SimdShaSigma2            0      0.00%     78.47% # Type of FU issued
system.switch_cpus.iq.FU_type_0::SimdShaSigma3            0      0.00%     78.47% # Type of FU issued
system.switch_cpus.iq.FU_type_0::SimdPredAlu            0      0.00%     78.47% # Type of FU issued
system.switch_cpus.iq.FU_type_0::MemRead    192196317     15.51%     93.97% # Type of FU issued
system.switch_cpus.iq.FU_type_0::MemWrite     74079229      5.98%     99.95% # Type of FU issued
system.switch_cpus.iq.FU_type_0::FloatMemRead          282      0.00%     99.95% # Type of FU issued
system.switch_cpus.iq.FU_type_0::FloatMemWrite       632455      0.05%    100.00% # Type of FU issued
system.switch_cpus.iq.FU_type_0::IprAccess            0      0.00%    100.00% # Type of FU issued
system.switch_cpus.iq.FU_type_0::InstPrefetch            0      0.00%    100.00% # Type of FU issued
system.switch_cpus.iq.FU_type_0::total     1239421181                       # Type of FU issued
system.switch_cpus.iq.fp_alu_accesses          933733                       # Number of floating point alu accesses
system.switch_cpus.iq.fp_inst_queue_reads      1805413                       # Number of floating instruction queue reads
system.switch_cpus.iq.fp_inst_queue_wakeup_accesses       865545                       # Number of floating instruction queue wakeup accesses
system.switch_cpus.iq.fp_inst_queue_writes       928828                       # Number of floating instruction queue writes
system.switch_cpus.iq.fu_busy_cnt            15602372                       # FU busy when requested
system.switch_cpus.iq.fu_busy_rate           0.012588                       # FU busy rate (busy events/executed inst)
system.switch_cpus.iq.fu_full::No_OpClass            0      0.00%      0.00% # attempts to use FU when none available
system.switch_cpus.iq.fu_full::IntAlu        12759426     81.78%     81.78% # attempts to use FU when none available
system.switch_cpus.iq.fu_full::IntMult              0      0.00%     81.78% # attempts to use FU when none available
system.switch_cpus.iq.fu_full::IntDiv               0      0.00%     81.78% # attempts to use FU when none available
system.switch_cpus.iq.fu_full::FloatAdd             0      0.00%     81.78% # attempts to use FU when none available
system.switch_cpus.iq.fu_full::FloatCmp             0      0.00%     81.78% # attempts to use FU when none available
system.switch_cpus.iq.fu_full::FloatCvt             0      0.00%     81.78% # attempts to use FU when none available
system.switch_cpus.iq.fu_full::FloatMult            0      0.00%     81.78% # attempts to use FU when none available
system.switch_cpus.iq.fu_full::FloatMultAcc            0      0.00%     81.78% # attempts to use FU when none available
system.switch_cpus.iq.fu_full::FloatDiv             0      0.00%     81.78% # attempts to use FU when none available
system.switch_cpus.iq.fu_full::FloatMisc            0      0.00%     81.78% # attempts to use FU when none available
system.switch_cpus.iq.fu_full::FloatSqrt            0      0.00%     81.78% # attempts to use FU when none available
system.switch_cpus.iq.fu_full::SimdAdd              0      0.00%     81.78% # attempts to use FU when none available
system.switch_cpus.iq.fu_full::SimdAddAcc            0      0.00%     81.78% # attempts to use FU when none available
system.switch_cpus.iq.fu_full::SimdAlu             11      0.00%     81.78% # attempts to use FU when none available
system.switch_cpus.iq.fu_full::SimdCmp              0      0.00%     81.78% # attempts to use FU when none available
system.switch_cpus.iq.fu_full::SimdCvt              0      0.00%     81.78% # attempts to use FU when none available
system.switch_cpus.iq.fu_full::SimdMisc             7      0.00%     81.78% # attempts to use FU when none available
system.switch_cpus.iq.fu_full::SimdMult             0      0.00%     81.78% # attempts to use FU when none available
system.switch_cpus.iq.fu_full::SimdMultAcc            0      0.00%     81.78% # attempts to use FU when none available
system.switch_cpus.iq.fu_full::SimdShift            0      0.00%     81.78% # attempts to use FU when none available
system.switch_cpus.iq.fu_full::SimdShiftAcc            0      0.00%     81.78% # attempts to use FU when none available
system.switch_cpus.iq.fu_full::SimdDiv              0      0.00%     81.78% # attempts to use FU when none available
system.switch_cpus.iq.fu_full::SimdSqrt             0      0.00%     81.78% # attempts to use FU when none available
system.switch_cpus.iq.fu_full::SimdFloatAdd            0      0.00%     81.78% # attempts to use FU when none available
system.switch_cpus.iq.fu_full::SimdFloatAlu            0      0.00%     81.78% # attempts to use FU when none available
system.switch_cpus.iq.fu_full::SimdFloatCmp            0      0.00%     81.78% # attempts to use FU when none available
system.switch_cpus.iq.fu_full::SimdFloatCvt            0      0.00%     81.78% # attempts to use FU when none available
system.switch_cpus.iq.fu_full::SimdFloatDiv            0      0.00%     81.78% # attempts to use FU when none available
system.switch_cpus.iq.fu_full::SimdFloatMisc            0      0.00%     81.78% # attempts to use FU when none available
system.switch_cpus.iq.fu_full::SimdFloatMult            0      0.00%     81.78% # attempts to use FU when none available
system.switch_cpus.iq.fu_full::SimdFloatMultAcc            0      0.00%     81.78% # attempts to use FU when none available
system.switch_cpus.iq.fu_full::SimdFloatSqrt            0      0.00%     81.78% # attempts to use FU when none available
system.switch_cpus.iq.fu_full::SimdReduceAdd            0      0.00%     81.78% # attempts to use FU when none available
system.switch_cpus.iq.fu_full::SimdReduceAlu            0      0.00%     81.78% # attempts to use FU when none available
system.switch_cpus.iq.fu_full::SimdReduceCmp            0      0.00%     81.78% # attempts to use FU when none available
system.switch_cpus.iq.fu_full::SimdFloatReduceAdd            0      0.00%     81.78% # attempts to use FU when none available
system.switch_cpus.iq.fu_full::SimdFloatReduceCmp            0      0.00%     81.78% # attempts to use FU when none available
system.switch_cpus.iq.fu_full::SimdAes              0      0.00%     81.78% # attempts to use FU when none available
system.switch_cpus.iq.fu_full::SimdAesMix            0      0.00%     81.78% # attempts to use FU when none available
system.switch_cpus.iq.fu_full::SimdSha1Hash            0      0.00%     81.78% # attempts to use FU when none available
system.switch_cpus.iq.fu_full::SimdSha1Hash2            0      0.00%     81.78% # attempts to use FU when none available
system.switch_cpus.iq.fu_full::SimdSha256Hash            0      0.00%     81.78% # attempts to use FU when none available
system.switch_cpus.iq.fu_full::SimdSha256Hash2            0      0.00%     81.78% # attempts to use FU when none available
system.switch_cpus.iq.fu_full::SimdShaSigma2            0      0.00%     81.78% # attempts to use FU when none available
system.switch_cpus.iq.fu_full::SimdShaSigma3            0      0.00%     81.78% # attempts to use FU when none available
system.switch_cpus.iq.fu_full::SimdPredAlu            0      0.00%     81.78% # attempts to use FU when none available
system.switch_cpus.iq.fu_full::MemRead        2285220     14.65%     96.43% # attempts to use FU when none available
system.switch_cpus.iq.fu_full::MemWrite        495482      3.18%     99.60% # attempts to use FU when none available
system.switch_cpus.iq.fu_full::FloatMemRead            5      0.00%     99.60% # attempts to use FU when none available
system.switch_cpus.iq.fu_full::FloatMemWrite        62221      0.40%    100.00% # attempts to use FU when none available
system.switch_cpus.iq.fu_full::IprAccess            0      0.00%    100.00% # attempts to use FU when none available
system.switch_cpus.iq.fu_full::InstPrefetch            0      0.00%    100.00% # attempts to use FU when none available
system.switch_cpus.iq.int_alu_accesses     1243166822                       # Number of integer alu accesses
system.switch_cpus.iq.int_inst_queue_reads   3185918847                       # Number of integer instruction queue reads
system.switch_cpus.iq.int_inst_queue_wakeup_accesses   1167931859                       # Number of integer instruction queue wakeup accesses
system.switch_cpus.iq.int_inst_queue_writes   2091868362                       # Number of integer instruction queue writes
system.switch_cpus.iq.iqInstsAdded         1466131144                       # Number of instructions added to the IQ (excludes non-spec)
system.switch_cpus.iq.iqInstsIssued        1239421181                       # Number of instructions issued
system.switch_cpus.iq.iqNonSpecInstsAdded           42                       # Number of non-speculative instructions added to the IQ
system.switch_cpus.iq.iqSquashedInstsExamined    626452316                       # Number of squashed instructions iterated over during squash; mainly for profiling
system.switch_cpus.iq.iqSquashedInstsIssued      5321202                       # Number of squashed instructions issued
system.switch_cpus.iq.iqSquashedNonSpecRemoved           39                       # Number of squashed non-spec instructions that were removed
system.switch_cpus.iq.iqSquashedOperandsExamined    894546890                       # Number of squashed operands that are examined and possibly removed from graph
system.switch_cpus.iq.issued_per_cycle::samples    687958325                       # Number of insts issued each cycle
system.switch_cpus.iq.issued_per_cycle::mean     1.801593                       # Number of insts issued each cycle
system.switch_cpus.iq.issued_per_cycle::stdev     2.299194                       # Number of insts issued each cycle
system.switch_cpus.iq.issued_per_cycle::underflows            0      0.00%      0.00% # Number of insts issued each cycle
system.switch_cpus.iq.issued_per_cycle::0    338624477     49.22%     49.22% # Number of insts issued each cycle
system.switch_cpus.iq.issued_per_cycle::1     73986305     10.75%     59.98% # Number of insts issued each cycle
system.switch_cpus.iq.issued_per_cycle::2     60089999      8.73%     68.71% # Number of insts issued each cycle
system.switch_cpus.iq.issued_per_cycle::3     51476632      7.48%     76.19% # Number of insts issued each cycle
system.switch_cpus.iq.issued_per_cycle::4     46714513      6.79%     82.98% # Number of insts issued each cycle
system.switch_cpus.iq.issued_per_cycle::5     43629574      6.34%     89.33% # Number of insts issued each cycle
system.switch_cpus.iq.issued_per_cycle::6     39526241      5.75%     95.07% # Number of insts issued each cycle
system.switch_cpus.iq.issued_per_cycle::7     22623058      3.29%     98.36% # Number of insts issued each cycle
system.switch_cpus.iq.issued_per_cycle::8     11287526      1.64%    100.00% # Number of insts issued each cycle
system.switch_cpus.iq.issued_per_cycle::overflows            0      0.00%    100.00% # Number of insts issued each cycle
system.switch_cpus.iq.issued_per_cycle::min_value            0                       # Number of insts issued each cycle
system.switch_cpus.iq.issued_per_cycle::max_value            8                       # Number of insts issued each cycle
system.switch_cpus.iq.issued_per_cycle::total    687958325                       # Number of insts issued each cycle
system.switch_cpus.iq.rate                   1.720315                       # Inst issue rate
system.switch_cpus.iq.vec_alu_accesses              0                       # Number of vector alu accesses
system.switch_cpus.iq.vec_inst_queue_reads            0                       # Number of vector instruction queue reads
system.switch_cpus.iq.vec_inst_queue_wakeup_accesses            0                       # Number of vector instruction queue wakeup accesses
system.switch_cpus.iq.vec_inst_queue_writes            0                       # Number of vector instruction queue writes
system.switch_cpus.itb.rdAccesses                   0                       # TLB accesses on read requests
system.switch_cpus.itb.rdMisses                     0                       # TLB misses on read requests
system.switch_cpus.itb.wrAccesses           131085197                       # TLB accesses on write requests
system.switch_cpus.itb.wrMisses                   962                       # TLB misses on write requests
system.switch_cpus.memDep0.conflictingLoads     16739057                       # Number of conflicting loads.
system.switch_cpus.memDep0.conflictingStores      9644203                       # Number of conflicting stores.
system.switch_cpus.memDep0.insertedLoads    219811510                       # Number of loads inserted to the mem dependence unit.
system.switch_cpus.memDep0.insertedStores     95079907                       # Number of stores inserted to the mem dependence unit.
system.switch_cpus.misc_regfile_reads       494487805                       # number of misc regfile reads
system.switch_cpus.numCycles                720461630                       # number of cpu cycles simulated
system.switch_cpus.numWorkItemsCompleted            0                       # number of work items this cpu completed
system.switch_cpus.numWorkItemsStarted              0                       # number of work items this cpu started
system.switch_cpus.rename.BlockCycles       123606523                       # Number of cycles rename is blocking
system.switch_cpus.rename.CommittedMaps    1077491149                       # Number of HB maps that are committed
system.switch_cpus.rename.IQFullEvents       13400055                       # Number of times rename has blocked due to IQ full
system.switch_cpus.rename.IdleCycles        285470897                       # Number of cycles rename is idle
system.switch_cpus.rename.LQFullEvents        1336640                       # Number of times rename has blocked due to LQ full
system.switch_cpus.rename.ROBFullEvents       1357324                       # Number of times rename has blocked due to ROB full
system.switch_cpus.rename.RenameLookups    4052327225                       # Number of register rename lookups that rename has made
system.switch_cpus.rename.RenamedInsts     1648974818                       # Number of instructions processed by rename
system.switch_cpus.rename.RenamedOperands   2055157044                       # Number of destination operands rename has renamed
system.switch_cpus.rename.RunCycles         237935180                       # Number of cycles rename is running
system.switch_cpus.rename.SQFullEvents        1266214                       # Number of times rename has blocked due to SQ full
system.switch_cpus.rename.SquashCycles       21862150                       # Number of cycles rename is squashing
system.switch_cpus.rename.UnblockCycles      19083548                       # Number of cycles rename is unblocking
system.switch_cpus.rename.UndoneMaps        977665817                       # Number of HB maps that are undone due to squashing
system.switch_cpus.rename.fp_rename_lookups      1148954                       # Number of floating rename lookups
system.switch_cpus.rename.int_rename_lookups   2602588869                       # Number of integer rename lookups
system.switch_cpus.rename.serializeStallCycles           21                       # count of cycles rename stalled for serializing inst
system.switch_cpus.rename.serializingInsts            3                       # count of serializing insts renamed
system.switch_cpus.rename.skidInsts          46542841                       # count of insts added to the skid buffer
system.switch_cpus.rename.tempSerializingInsts            3                       # count of temporary serializing insts renamed
system.switch_cpus.rob.rob_reads           2018391713                       # The number of ROB reads
system.switch_cpus.rob.rob_writes          3028515327                       # The number of ROB writes
system.switch_cpus.timesIdled                 3313315                       # Number of times that the entire CPU went into an idle state and unscheduled itself
system.tol2bus.snoop_filter.hit_multi_requests        37683                       # Number of requests hitting in the snoop filter with multiple (>1) holders of the requested data.
system.tol2bus.snoop_filter.hit_multi_snoops          349                       # Number of snoops hitting in the snoop filter with multiple (>1) holders of the requested data.
system.tol2bus.snoop_filter.hit_single_requests     14036645                       # Number of requests hitting in the snoop filter with a single holder of the requested data.
system.tol2bus.snoop_filter.hit_single_snoops       318498                       # Number of snoops hitting in the snoop filter with a single holder of the requested data.
system.tol2bus.snoop_filter.tot_requests     28073337                       # Total number of requests made to the snoop filter.
system.tol2bus.snoop_filter.tot_snoops         318847                       # Total number of snoops made to the snoop filter.
system.membus.pwrStateResidencyTicks::UNDEFINED 1402635923500                       # Cumulative time (in ticks) in various power states
system.membus.trans_dist::ReadResp             763742                       # Transaction distribution
system.membus.trans_dist::WritebackDirty       279732                       # Transaction distribution
system.membus.trans_dist::CleanEvict           637940                       # Transaction distribution
system.membus.trans_dist::UpgradeReq                1                       # Transaction distribution
system.membus.trans_dist::ReadExReq            153914                       # Transaction distribution
system.membus.trans_dist::ReadExResp           153914                       # Transaction distribution
system.membus.trans_dist::ReadSharedReq        763742                       # Transaction distribution
system.membus.pkt_count_system.l2.mem_side::system.mem_ctrls.port      2752985                       # Packet count per connected master and slave (bytes)
system.membus.pkt_count_system.l2.mem_side::total      2752985                       # Packet count per connected master and slave (bytes)
system.membus.pkt_count::total                2752985                       # Packet count per connected master and slave (bytes)
system.membus.pkt_size_system.l2.mem_side::system.mem_ctrls.port     76632832                       # Cumulative packet size per connected master and slave (bytes)
system.membus.pkt_size_system.l2.mem_side::total     76632832                       # Cumulative packet size per connected master and slave (bytes)
system.membus.pkt_size::total                76632832                       # Cumulative packet size per connected master and slave (bytes)
system.membus.snoops                                0                       # Total snoops (count)
system.membus.snoopTraffic                          0                       # Total snoop traffic (bytes)
system.membus.snoop_fanout::samples            917657                       # Request fanout histogram
system.membus.snoop_fanout::mean                    0                       # Request fanout histogram
system.membus.snoop_fanout::stdev                   0                       # Request fanout histogram
system.membus.snoop_fanout::underflows              0      0.00%      0.00% # Request fanout histogram
system.membus.snoop_fanout::0                  917657    100.00%    100.00% # Request fanout histogram
system.membus.snoop_fanout::1                       0      0.00%    100.00% # Request fanout histogram
system.membus.snoop_fanout::overflows               0      0.00%    100.00% # Request fanout histogram
system.membus.snoop_fanout::min_value               0                       # Request fanout histogram
system.membus.snoop_fanout::max_value               0                       # Request fanout histogram
system.membus.snoop_fanout::total              917657                       # Request fanout histogram
system.membus.reqLayer2.occupancy          3199852500                       # Layer occupancy (ticks)
system.membus.reqLayer2.utilization               0.9                       # Layer utilization (%)
system.membus.respLayer1.occupancy         4907614750                       # Layer occupancy (ticks)
system.membus.respLayer1.utilization              1.4                       # Layer utilization (%)
system.switch_cpus.pwrStateResidencyTicks::OFF 1402635923500                       # Cumulative time (in ticks) in various power states
system.switch_cpus.dtb.walker.pwrStateResidencyTicks::UNDEFINED 1402635923500                       # Cumulative time (in ticks) in various power states
system.switch_cpus.itb.walker.pwrStateResidencyTicks::UNDEFINED 1402635923500                       # Cumulative time (in ticks) in various power states
system.tol2bus.pwrStateResidencyTicks::UNDEFINED 1402635923500                       # Cumulative time (in ticks) in various power states
system.tol2bus.trans_dist::ReadResp          13332274                       # Transaction distribution
system.tol2bus.trans_dist::WritebackDirty      1421248                       # Transaction distribution
system.tol2bus.trans_dist::WritebackClean     10653444                       # Transaction distribution
system.tol2bus.trans_dist::CleanEvict         3046936                       # Transaction distribution
system.tol2bus.trans_dist::UpgradeReq              26                       # Transaction distribution
system.tol2bus.trans_dist::UpgradeResp             26                       # Transaction distribution
system.tol2bus.trans_dist::ReadExReq           704395                       # Transaction distribution
system.tol2bus.trans_dist::ReadExResp          704395                       # Transaction distribution
system.tol2bus.trans_dist::ReadCleanReq      10653471                       # Transaction distribution
system.tol2bus.trans_dist::ReadSharedReq      2678803                       # Transaction distribution
system.tol2bus.pkt_count_system.cpu.icache.mem_side::system.l2.cpu_side     31960360                       # Packet count per connected master and slave (bytes)
system.tol2bus.pkt_count_system.cpu.dcache.mem_side::system.l2.cpu_side     10149646                       # Packet count per connected master and slave (bytes)
system.tol2bus.pkt_count::total              42110006                       # Packet count per connected master and slave (bytes)
system.tol2bus.pkt_size_system.cpu.icache.mem_side::system.l2.cpu_side   1363640896                       # Cumulative packet size per connected master and slave (bytes)
system.tol2bus.pkt_size_system.cpu.dcache.mem_side::system.l2.cpu_side    289581696                       # Cumulative packet size per connected master and slave (bytes)
system.tol2bus.pkt_size::total             1653222592                       # Cumulative packet size per connected master and slave (bytes)
system.tol2bus.snoops                         1085012                       # Total snoops (count)
system.tol2bus.snoopTraffic                  17904512                       # Total snoop traffic (bytes)
system.tol2bus.snoop_fanout::samples         15121681                       # Request fanout histogram
system.tol2bus.snoop_fanout::mean            0.023601                       # Request fanout histogram
system.tol2bus.snoop_fanout::stdev           0.151953                       # Request fanout histogram
system.tol2bus.snoop_fanout::underflows             0      0.00%      0.00% # Request fanout histogram
system.tol2bus.snoop_fanout::0               14765148     97.64%     97.64% # Request fanout histogram
system.tol2bus.snoop_fanout::1                 356184      2.36%    100.00% # Request fanout histogram
system.tol2bus.snoop_fanout::2                    349      0.00%    100.00% # Request fanout histogram
system.tol2bus.snoop_fanout::3                      0      0.00%    100.00% # Request fanout histogram
system.tol2bus.snoop_fanout::4                      0      0.00%    100.00% # Request fanout histogram
system.tol2bus.snoop_fanout::overflows              0      0.00%    100.00% # Request fanout histogram
system.tol2bus.snoop_fanout::min_value              0                       # Request fanout histogram
system.tol2bus.snoop_fanout::max_value              2                       # Request fanout histogram
system.tol2bus.snoop_fanout::total           15121681                       # Request fanout histogram
system.tol2bus.reqLayer0.occupancy        25831628500                       # Layer occupancy (ticks)
system.tol2bus.reqLayer0.utilization              7.2                       # Layer utilization (%)
system.tol2bus.respLayer1.occupancy        5076979153                       # Layer occupancy (ticks)
system.tol2bus.respLayer1.utilization             1.4                       # Layer utilization (%)
system.tol2bus.respLayer0.occupancy       15982360683                       # Layer occupancy (ticks)
system.tol2bus.respLayer0.utilization             4.4                       # Layer utilization (%)
system.voltage_domain.voltage                       1                       # Voltage in Volts
system.clk_domain.clock                          1000                       # Clock period in ticks
system.l2.pwrStateResidencyTicks::UNDEFINED 1402635923500                       # Cumulative time (in ticks) in various power states
system.l2.demand_hits::.switch_cpus.inst     10455044                       # number of demand (read+write) hits
system.l2.demand_hits::.switch_cpus.data      2663943                       # number of demand (read+write) hits
system.l2.demand_hits::total                 13118987                       # number of demand (read+write) hits
system.l2.overall_hits::.switch_cpus.inst     10455044                       # number of overall hits
system.l2.overall_hits::.switch_cpus.data      2663943                       # number of overall hits
system.l2.overall_hits::total                13118987                       # number of overall hits
system.l2.demand_misses::.switch_cpus.inst       198401                       # number of demand (read+write) misses
system.l2.demand_misses::.switch_cpus.data       719255                       # number of demand (read+write) misses
system.l2.demand_misses::total                 917656                       # number of demand (read+write) misses
system.l2.overall_misses::.switch_cpus.inst       198401                       # number of overall misses
system.l2.overall_misses::.switch_cpus.data       719255                       # number of overall misses
system.l2.overall_misses::total                917656                       # number of overall misses
system.l2.demand_miss_latency::.switch_cpus.inst  16137981500                       # number of demand (read+write) miss cycles
system.l2.demand_miss_latency::.switch_cpus.data  59271624500                       # number of demand (read+write) miss cycles
system.l2.demand_miss_latency::total      75409606000                       # number of demand (read+write) miss cycles
system.l2.overall_miss_latency::.switch_cpus.inst  16137981500                       # number of overall miss cycles
system.l2.overall_miss_latency::.switch_cpus.data  59271624500                       # number of overall miss cycles
system.l2.overall_miss_latency::total     75409606000                       # number of overall miss cycles
system.l2.demand_accesses::.switch_cpus.inst     10653445                       # number of demand (read+write) accesses
system.l2.demand_accesses::.switch_cpus.data      3383198                       # number of demand (read+write) accesses
system.l2.demand_accesses::total             14036643                       # number of demand (read+write) accesses
system.l2.overall_accesses::.switch_cpus.inst     10653445                       # number of overall (read+write) accesses
system.l2.overall_accesses::.switch_cpus.data      3383198                       # number of overall (read+write) accesses
system.l2.overall_accesses::total            14036643                       # number of overall (read+write) accesses
system.l2.demand_miss_rate::.switch_cpus.inst     0.018623                       # miss rate for demand accesses
system.l2.demand_miss_rate::.switch_cpus.data     0.212596                       # miss rate for demand accesses
system.l2.demand_miss_rate::total            0.065376                       # miss rate for demand accesses
system.l2.overall_miss_rate::.switch_cpus.inst     0.018623                       # miss rate for overall accesses
system.l2.overall_miss_rate::.switch_cpus.data     0.212596                       # miss rate for overall accesses
system.l2.overall_miss_rate::total           0.065376                       # miss rate for overall accesses
system.l2.demand_avg_miss_latency::.switch_cpus.inst 81340.222580                       # average overall miss latency
system.l2.demand_avg_miss_latency::.switch_cpus.data 82406.969017                       # average overall miss latency
system.l2.demand_avg_miss_latency::total 82176.334051                       # average overall miss latency
system.l2.overall_avg_miss_latency::.switch_cpus.inst 81340.222580                       # average overall miss latency
system.l2.overall_avg_miss_latency::.switch_cpus.data 82406.969017                       # average overall miss latency
system.l2.overall_avg_miss_latency::total 82176.334051                       # average overall miss latency
system.l2.blocked_cycles::no_mshrs                  0                       # number of cycles access was blocked
system.l2.blocked_cycles::no_targets                0                       # number of cycles access was blocked
system.l2.blocked::no_mshrs                         0                       # number of cycles access was blocked
system.l2.blocked::no_targets                       0                       # number of cycles access was blocked
system.l2.avg_blocked_cycles::no_mshrs            nan                       # average number of cycles each access was blocked
system.l2.avg_blocked_cycles::no_targets          nan                       # average number of cycles each access was blocked
system.l2.writebacks::.writebacks              279732                       # number of writebacks
system.l2.writebacks::total                    279732                       # number of writebacks
system.l2.demand_mshr_misses::.switch_cpus.inst       198401                       # number of demand (read+write) MSHR misses
system.l2.demand_mshr_misses::.switch_cpus.data       719255                       # number of demand (read+write) MSHR misses
system.l2.demand_mshr_misses::total            917656                       # number of demand (read+write) MSHR misses
system.l2.overall_mshr_misses::.switch_cpus.inst       198401                       # number of overall MSHR misses
system.l2.overall_mshr_misses::.switch_cpus.data       719255                       # number of overall MSHR misses
system.l2.overall_mshr_misses::total           917656                       # number of overall MSHR misses
system.l2.demand_mshr_miss_latency::.switch_cpus.inst  14153971500                       # number of demand (read+write) MSHR miss cycles
system.l2.demand_mshr_miss_latency::.switch_cpus.data  52079074500                       # number of demand (read+write) MSHR miss cycles
system.l2.demand_mshr_miss_latency::total  66233046000                       # number of demand (read+write) MSHR miss cycles
system.l2.overall_mshr_miss_latency::.switch_cpus.inst  14153971500                       # number of overall MSHR miss cycles
system.l2.overall_mshr_miss_latency::.switch_cpus.data  52079074500                       # number of overall MSHR miss cycles
system.l2.overall_mshr_miss_latency::total  66233046000                       # number of overall MSHR miss cycles
system.l2.demand_mshr_miss_rate::.switch_cpus.inst     0.018623                       # mshr miss rate for demand accesses
system.l2.demand_mshr_miss_rate::.switch_cpus.data     0.212596                       # mshr miss rate for demand accesses
system.l2.demand_mshr_miss_rate::total       0.065376                       # mshr miss rate for demand accesses
system.l2.overall_mshr_miss_rate::.switch_cpus.inst     0.018623                       # mshr miss rate for overall accesses
system.l2.overall_mshr_miss_rate::.switch_cpus.data     0.212596                       # mshr miss rate for overall accesses
system.l2.overall_mshr_miss_rate::total      0.065376                       # mshr miss rate for overall accesses
system.l2.demand_avg_mshr_miss_latency::.switch_cpus.inst 71340.222580                       # average overall mshr miss latency
system.l2.demand_avg_mshr_miss_latency::.switch_cpus.data 72406.969017                       # average overall mshr miss latency
system.l2.demand_avg_mshr_miss_latency::total 72176.334051                       # average overall mshr miss latency
system.l2.overall_avg_mshr_miss_latency::.switch_cpus.inst 71340.222580                       # average overall mshr miss latency
system.l2.overall_avg_mshr_miss_latency::.switch_cpus.data 72406.969017                       # average overall mshr miss latency
system.l2.overall_avg_mshr_miss_latency::total 72176.334051                       # average overall mshr miss latency
system.l2.replacements                        1084986                       # number of replacements
system.l2.WritebackDirty_hits::.writebacks      1141516                       # number of WritebackDirty hits
system.l2.WritebackDirty_hits::total          1141516                       # number of WritebackDirty hits
system.l2.WritebackDirty_accesses::.writebacks      1141516                       # number of WritebackDirty accesses(hits+misses)
system.l2.WritebackDirty_accesses::total      1141516                       # number of WritebackDirty accesses(hits+misses)
system.l2.WritebackClean_hits::.writebacks     10652475                       # number of WritebackClean hits
system.l2.WritebackClean_hits::total         10652475                       # number of WritebackClean hits
system.l2.WritebackClean_accesses::.writebacks     10652475                       # number of WritebackClean accesses(hits+misses)
system.l2.WritebackClean_accesses::total     10652475                       # number of WritebackClean accesses(hits+misses)
system.l2.CleanEvict_mshr_misses::.writebacks       147462                       # number of CleanEvict MSHR misses
system.l2.CleanEvict_mshr_misses::total        147462                       # number of CleanEvict MSHR misses
system.l2.CleanEvict_mshr_miss_rate::.writebacks          inf                       # mshr miss rate for CleanEvict accesses
system.l2.CleanEvict_mshr_miss_rate::total          inf                       # mshr miss rate for CleanEvict accesses
system.l2.UpgradeReq_hits::.switch_cpus.data           25                       # number of UpgradeReq hits
system.l2.UpgradeReq_hits::total                   25                       # number of UpgradeReq hits
system.l2.UpgradeReq_misses::.switch_cpus.data            1                       # number of UpgradeReq misses
system.l2.UpgradeReq_misses::total                  1                       # number of UpgradeReq misses
system.l2.UpgradeReq_accesses::.switch_cpus.data           26                       # number of UpgradeReq accesses(hits+misses)
system.l2.UpgradeReq_accesses::total               26                       # number of UpgradeReq accesses(hits+misses)
system.l2.UpgradeReq_miss_rate::.switch_cpus.data     0.038462                       # miss rate for UpgradeReq accesses
system.l2.UpgradeReq_miss_rate::total        0.038462                       # miss rate for UpgradeReq accesses
system.l2.UpgradeReq_mshr_misses::.switch_cpus.data            1                       # number of UpgradeReq MSHR misses
system.l2.UpgradeReq_mshr_misses::total             1                       # number of UpgradeReq MSHR misses
system.l2.UpgradeReq_mshr_miss_latency::.switch_cpus.data        19500                       # number of UpgradeReq MSHR miss cycles
system.l2.UpgradeReq_mshr_miss_latency::total        19500                       # number of UpgradeReq MSHR miss cycles
system.l2.UpgradeReq_mshr_miss_rate::.switch_cpus.data     0.038462                       # mshr miss rate for UpgradeReq accesses
system.l2.UpgradeReq_mshr_miss_rate::total     0.038462                       # mshr miss rate for UpgradeReq accesses
system.l2.UpgradeReq_avg_mshr_miss_latency::.switch_cpus.data        19500                       # average UpgradeReq mshr miss latency
system.l2.UpgradeReq_avg_mshr_miss_latency::total        19500                       # average UpgradeReq mshr miss latency
system.l2.ReadExReq_hits::.switch_cpus.data       550481                       # number of ReadExReq hits
system.l2.ReadExReq_hits::total                550481                       # number of ReadExReq hits
system.l2.ReadExReq_misses::.switch_cpus.data       153914                       # number of ReadExReq misses
system.l2.ReadExReq_misses::total              153914                       # number of ReadExReq misses
system.l2.ReadExReq_miss_latency::.switch_cpus.data  11162687500                       # number of ReadExReq miss cycles
system.l2.ReadExReq_miss_latency::total   11162687500                       # number of ReadExReq miss cycles
system.l2.ReadExReq_accesses::.switch_cpus.data       704395                       # number of ReadExReq accesses(hits+misses)
system.l2.ReadExReq_accesses::total            704395                       # number of ReadExReq accesses(hits+misses)
system.l2.ReadExReq_miss_rate::.switch_cpus.data     0.218505                       # miss rate for ReadExReq accesses
system.l2.ReadExReq_miss_rate::total         0.218505                       # miss rate for ReadExReq accesses
system.l2.ReadExReq_avg_miss_latency::.switch_cpus.data 72525.485011                       # average ReadExReq miss latency
system.l2.ReadExReq_avg_miss_latency::total 72525.485011                       # average ReadExReq miss latency
system.l2.ReadExReq_mshr_misses::.switch_cpus.data       153914                       # number of ReadExReq MSHR misses
system.l2.ReadExReq_mshr_misses::total         153914                       # number of ReadExReq MSHR misses
system.l2.ReadExReq_mshr_miss_latency::.switch_cpus.data   9623547500                       # number of ReadExReq MSHR miss cycles
system.l2.ReadExReq_mshr_miss_latency::total   9623547500                       # number of ReadExReq MSHR miss cycles
system.l2.ReadExReq_mshr_miss_rate::.switch_cpus.data     0.218505                       # mshr miss rate for ReadExReq accesses
system.l2.ReadExReq_mshr_miss_rate::total     0.218505                       # mshr miss rate for ReadExReq accesses
system.l2.ReadExReq_avg_mshr_miss_latency::.switch_cpus.data 62525.485011                       # average ReadExReq mshr miss latency
system.l2.ReadExReq_avg_mshr_miss_latency::total 62525.485011                       # average ReadExReq mshr miss latency
system.l2.ReadCleanReq_hits::.switch_cpus.inst     10455044                       # number of ReadCleanReq hits
system.l2.ReadCleanReq_hits::total           10455044                       # number of ReadCleanReq hits
system.l2.ReadCleanReq_misses::.switch_cpus.inst       198401                       # number of ReadCleanReq misses
system.l2.ReadCleanReq_misses::total           198401                       # number of ReadCleanReq misses
system.l2.ReadCleanReq_miss_latency::.switch_cpus.inst  16137981500                       # number of ReadCleanReq miss cycles
system.l2.ReadCleanReq_miss_latency::total  16137981500                       # number of ReadCleanReq miss cycles
system.l2.ReadCleanReq_accesses::.switch_cpus.inst     10653445                       # number of ReadCleanReq accesses(hits+misses)
system.l2.ReadCleanReq_accesses::total       10653445                       # number of ReadCleanReq accesses(hits+misses)
[...]
system.cpu.itb_walker_cache.blocked_cycles::no_targets            0                       # number of cycles access was blocked
system.cpu.itb_walker_cache.blocked::no_mshrs            0                       # number of cycles access was blocked
system.cpu.itb_walker_cache.blocked::no_targets            0                       # number of cycles access was blocked
system.cpu.itb_walker_cache.avg_blocked_cycles::no_mshrs          nan                       # average number of cycles each access was blocked
system.cpu.itb_walker_cache.avg_blocked_cycles::no_targets          nan                       # average number of cycles each access was blocked
system.cpu.itb_walker_cache.replacements            0                       # number of replacements
system.cpu.itb_walker_cache.tags.pwrStateResidencyTicks::UNDEFINED 1402635923500                       # Cumulative time (in ticks) in various power states
system.cpu.itb_walker_cache.tags.tagsinuse            0                       # Cycle average of tags in use
system.cpu.itb_walker_cache.tags.total_refs            0                       # Total number of references to valid blocks.
system.cpu.itb_walker_cache.tags.sampled_refs            0                       # Sample count of references to valid blocks.
system.cpu.itb_walker_cache.tags.avg_refs          nan                       # Average number of references to valid blocks.
system.cpu.itb_walker_cache.tags.warmup_cycle            0                       # Cycle when the warmup percentage was hit.
system.cpu.itb_walker_cache.tags.tag_accesses            0                       # Number of tag accesses
system.cpu.itb_walker_cache.tags.data_accesses            0                       # Number of data accesses
system.cpu.itb.walker.pwrStateResidencyTicks::UNDEFINED 1402635923500                       # Cumulative time (in ticks) in various power states
system.cpu.dtb_walker_cache.pwrStateResidencyTicks::UNDEFINED 1402635923500                       # Cumulative time (in ticks) in various power states
system.cpu.dtb_walker_cache.blocked_cycles::no_mshrs            0                       # number of cycles access was blocked
system.cpu.dtb_walker_cache.blocked_cycles::no_targets            0                       # number of cycles access was blocked
system.cpu.dtb_walker_cache.blocked::no_mshrs            0                       # number of cycles access was blocked
system.cpu.dtb_walker_cache.blocked::no_targets            0                       # number of cycles access was blocked
system.cpu.dtb_walker_cache.avg_blocked_cycles::no_mshrs          nan                       # average number of cycles each access was blocked
system.cpu.dtb_walker_cache.avg_blocked_cycles::no_targets          nan                       # average number of cycles each access was blocked
system.cpu.dtb_walker_cache.replacements            0                       # number of replacements
system.cpu.dtb_walker_cache.tags.pwrStateResidencyTicks::UNDEFINED 1402635923500                       # Cumulative time (in ticks) in various power states
system.cpu.dtb_walker_cache.tags.tagsinuse            0                       # Cycle average of tags in use
system.cpu.dtb_walker_cache.tags.total_refs            0                       # Total number of references to valid blocks.
system.cpu.dtb_walker_cache.tags.sampled_refs            0                       # Sample count of references to valid blocks.
system.cpu.dtb_walker_cache.tags.avg_refs          nan                       # Average number of references to valid blocks.
system.cpu.dtb_walker_cache.tags.warmup_cycle            0                       # Cycle when the warmup percentage was hit.
system.cpu.dtb_walker_cache.tags.tag_accesses            0                       # Number of tag accesses
system.cpu.dtb_walker_cache.tags.data_accesses            0                       # Number of data accesses
system.cpu.dcache.pwrStateResidencyTicks::UNDEFINED 1402635923500                       # Cumulative time (in ticks) in various power states
system.cpu.dcache.demand_hits::.cpu.data    452829314                       # number of demand (read+write) hits
system.cpu.dcache.demand_hits::.switch_cpus.data    214690330                       # number of demand (read+write) hits
system.cpu.dcache.demand_hits::total        667519644                       # number of demand (read+write) hits
system.cpu.dcache.overall_hits::.cpu.data    452829314                       # number of overall hits
system.cpu.dcache.overall_hits::.switch_cpus.data    214690330                       # number of overall hits
system.cpu.dcache.overall_hits::total       667519644                       # number of overall hits
system.cpu.dcache.demand_misses::.cpu.data     27827007                       # number of demand (read+write) misses
system.cpu.dcache.demand_misses::.switch_cpus.data      4840800                       # number of demand (read+write) misses
system.cpu.dcache.demand_misses::total       32667807                       # number of demand (read+write) misses
system.cpu.dcache.overall_misses::.cpu.data     27827007                       # number of overall misses
system.cpu.dcache.overall_misses::.switch_cpus.data      4840800                       # number of overall misses
system.cpu.dcache.overall_misses::total      32667807                       # number of overall misses
system.cpu.dcache.demand_miss_latency::.switch_cpus.data 141715327953                       # number of demand (read+write) miss cycles
system.cpu.dcache.demand_miss_latency::total 141715327953                       # number of demand (read+write) miss cycles
system.cpu.dcache.overall_miss_latency::.switch_cpus.data 141715327953                       # number of overall miss cycles
system.cpu.dcache.overall_miss_latency::total 141715327953                       # number of overall miss cycles
system.cpu.dcache.demand_accesses::.cpu.data    480656321                       # number of demand (read+write) accesses
system.cpu.dcache.demand_accesses::.switch_cpus.data    219531130                       # number of demand (read+write) accesses
system.cpu.dcache.demand_accesses::total    700187451                       # number of demand (read+write) accesses
system.cpu.dcache.overall_accesses::.cpu.data    480656321                       # number of overall (read+write) accesses
system.cpu.dcache.overall_accesses::.switch_cpus.data    219531130                       # number of overall (read+write) accesses
system.cpu.dcache.overall_accesses::total    700187451                       # number of overall (read+write) accesses
system.cpu.dcache.demand_miss_rate::.cpu.data     0.057894                       # miss rate for demand accesses
system.cpu.dcache.demand_miss_rate::.switch_cpus.data     0.022051                       # miss rate for demand accesses
system.cpu.dcache.demand_miss_rate::total     0.046656                       # miss rate for demand accesses
system.cpu.dcache.overall_miss_rate::.cpu.data     0.057894                       # miss rate for overall accesses
system.cpu.dcache.overall_miss_rate::.switch_cpus.data     0.022051                       # miss rate for overall accesses
system.cpu.dcache.overall_miss_rate::total     0.046656                       # miss rate for overall accesses
system.cpu.dcache.demand_avg_miss_latency::.switch_cpus.data 29275.187563                       # average overall miss latency
system.cpu.dcache.demand_avg_miss_latency::total  4338.072891                       # average overall miss latency
system.cpu.dcache.overall_avg_miss_latency::.switch_cpus.data 29275.187563                       # average overall miss latency
system.cpu.dcache.overall_avg_miss_latency::total  4338.072891                       # average overall miss latency
system.cpu.dcache.blocked_cycles::no_mshrs       346842                       # number of cycles access was blocked
system.cpu.dcache.blocked_cycles::no_targets         1358                       # number of cycles access was blocked
system.cpu.dcache.blocked::no_mshrs             12184                       # number of cycles access was blocked
system.cpu.dcache.blocked::no_targets              30                       # number of cycles access was blocked
system.cpu.dcache.avg_blocked_cycles::no_mshrs    28.467006                       # average number of cycles each access was blocked
system.cpu.dcache.avg_blocked_cycles::no_targets    45.266667                       # average number of cycles each access was blocked
system.cpu.dcache.writebacks::.writebacks     25625885                       # number of writebacks
system.cpu.dcache.writebacks::total          25625885                       # number of writebacks
system.cpu.dcache.demand_mshr_hits::.switch_cpus.data      1457576                       # number of demand (read+write) MSHR hits
system.cpu.dcache.demand_mshr_hits::total      1457576                       # number of demand (read+write) MSHR hits
system.cpu.dcache.overall_mshr_hits::.switch_cpus.data      1457576                       # number of overall MSHR hits
system.cpu.dcache.overall_mshr_hits::total      1457576                       # number of overall MSHR hits
system.cpu.dcache.demand_mshr_misses::.switch_cpus.data      3383224                       # number of demand (read+write) MSHR misses
system.cpu.dcache.demand_mshr_misses::total      3383224                       # number of demand (read+write) MSHR misses
system.cpu.dcache.overall_mshr_misses::.switch_cpus.data      3383224                       # number of overall MSHR misses
system.cpu.dcache.overall_mshr_misses::total      3383224                       # number of overall MSHR misses
system.cpu.dcache.demand_mshr_miss_latency::.switch_cpus.data  92699255460                       # number of demand (read+write) MSHR miss cycles
system.cpu.dcache.demand_mshr_miss_latency::total  92699255460                       # number of demand (read+write) MSHR miss cycles
system.cpu.dcache.overall_mshr_miss_latency::.switch_cpus.data  92699255460                       # number of overall MSHR miss cycles
system.cpu.dcache.overall_mshr_miss_latency::total  92699255460                       # number of overall MSHR miss cycles
system.cpu.dcache.demand_mshr_miss_rate::.switch_cpus.data     0.015411                       # mshr miss rate for demand accesses
system.cpu.dcache.demand_mshr_miss_rate::total     0.004832                       # mshr miss rate for demand accesses
system.cpu.dcache.overall_mshr_miss_rate::.switch_cpus.data     0.015411                       # mshr miss rate for overall accesses
system.cpu.dcache.overall_mshr_miss_rate::total     0.004832                       # mshr miss rate for overall accesses
system.cpu.dcache.demand_avg_mshr_miss_latency::.switch_cpus.data 27399.680145                       # average overall mshr miss latency
system.cpu.dcache.demand_avg_mshr_miss_latency::total 27399.680145                       # average overall mshr miss latency
system.cpu.dcache.overall_avg_mshr_miss_latency::.switch_cpus.data 27399.680145                       # average overall mshr miss latency
system.cpu.dcache.overall_avg_mshr_miss_latency::total 27399.680145                       # average overall mshr miss latency
system.cpu.dcache.replacements               31209949                       # number of replacements
system.cpu.dcache.ReadReq_hits::.cpu.data    203451724                       # number of ReadReq hits
system.cpu.dcache.ReadReq_hits::.switch_cpus.data    160194495                       # number of ReadReq hits
system.cpu.dcache.ReadReq_hits::total       363646219                       # number of ReadReq hits
system.cpu.dcache.ReadReq_misses::.cpu.data      3960680                       # number of ReadReq misses
system.cpu.dcache.ReadReq_misses::.switch_cpus.data      4115840                       # number of ReadReq misses
system.cpu.dcache.ReadReq_misses::total       8076520                       # number of ReadReq misses
system.cpu.dcache.ReadReq_miss_latency::.switch_cpus.data 122451565500                       # number of ReadReq miss cycles
system.cpu.dcache.ReadReq_miss_latency::total 122451565500                       # number of ReadReq miss cycles
system.cpu.dcache.ReadReq_accesses::.cpu.data    207412404                       # number of ReadReq accesses(hits+misses)
system.cpu.dcache.ReadReq_accesses::.switch_cpus.data    164310335                       # number of ReadReq accesses(hits+misses)
system.cpu.dcache.ReadReq_accesses::total    371722739                       # number of ReadReq accesses(hits+misses)
system.cpu.dcache.ReadReq_miss_rate::.cpu.data     0.019096                       # miss rate for ReadReq accesses
system.cpu.dcache.ReadReq_miss_rate::.switch_cpus.data     0.025049                       # miss rate for ReadReq accesses
system.cpu.dcache.ReadReq_miss_rate::total     0.021727                       # miss rate for ReadReq accesses
system.cpu.dcache.ReadReq_avg_miss_latency::.switch_cpus.data 29751.293904                       # average ReadReq miss latency
system.cpu.dcache.ReadReq_avg_miss_latency::total 15161.426642                       # average ReadReq miss latency
system.cpu.dcache.ReadReq_mshr_hits::.switch_cpus.data      1434905                       # number of ReadReq MSHR hits
system.cpu.dcache.ReadReq_mshr_hits::total      1434905                       # number of ReadReq MSHR hits
system.cpu.dcache.ReadReq_mshr_misses::.switch_cpus.data      2680935                       # number of ReadReq MSHR misses
system.cpu.dcache.ReadReq_mshr_misses::total      2680935                       # number of ReadReq MSHR misses
system.cpu.dcache.ReadReq_mshr_miss_latency::.switch_cpus.data  74668201000                       # number of ReadReq MSHR miss cycles
system.cpu.dcache.ReadReq_mshr_miss_latency::total  74668201000                       # number of ReadReq MSHR miss cycles
system.cpu.dcache.ReadReq_mshr_miss_rate::.switch_cpus.data     0.016316                       # mshr miss rate for ReadReq accesses
system.cpu.dcache.ReadReq_mshr_miss_rate::total     0.007212                       # mshr miss rate for ReadReq accesses
system.cpu.dcache.ReadReq_avg_mshr_miss_latency::.switch_cpus.data 27851.552164                       # average ReadReq mshr miss latency
system.cpu.dcache.ReadReq_avg_mshr_miss_latency::total 27851.552164                       # average ReadReq mshr miss latency
system.cpu.dcache.WriteReq_hits::.cpu.data    249377590                       # number of WriteReq hits
system.cpu.dcache.WriteReq_hits::.switch_cpus.data     54495835                       # number of WriteReq hits
system.cpu.dcache.WriteReq_hits::total      303873425                       # number of WriteReq hits
system.cpu.dcache.WriteReq_misses::.cpu.data     23866327                       # number of WriteReq misses
system.cpu.dcache.WriteReq_misses::.switch_cpus.data       724960                       # number of WriteReq misses
system.cpu.dcache.WriteReq_misses::total     24591287                       # number of WriteReq misses
system.cpu.dcache.WriteReq_miss_latency::.switch_cpus.data  19263762453                       # number of WriteReq miss cycles
system.cpu.dcache.WriteReq_miss_latency::total  19263762453                       # number of WriteReq miss cycles
system.cpu.dcache.WriteReq_accesses::.cpu.data    273243917                       # number of WriteReq accesses(hits+misses)
system.cpu.dcache.WriteReq_accesses::.switch_cpus.data     55220795                       # number of WriteReq accesses(hits+misses)
system.cpu.dcache.WriteReq_accesses::total    328464712                       # number of WriteReq accesses(hits+misses)
system.cpu.dcache.WriteReq_miss_rate::.cpu.data     0.087344                       # miss rate for WriteReq accesses
system.cpu.dcache.WriteReq_miss_rate::.switch_cpus.data     0.013128                       # miss rate for WriteReq accesses
system.cpu.dcache.WriteReq_miss_rate::total     0.074867                       # miss rate for WriteReq accesses
system.cpu.dcache.WriteReq_avg_miss_latency::.switch_cpus.data 26572.172883                       # average WriteReq miss latency
system.cpu.dcache.WriteReq_avg_miss_latency::total   783.357229                       # average WriteReq miss latency
system.cpu.dcache.WriteReq_mshr_hits::.switch_cpus.data        22671                       # number of WriteReq MSHR hits
system.cpu.dcache.WriteReq_mshr_hits::total        22671                       # number of WriteReq MSHR hits
system.cpu.dcache.WriteReq_mshr_misses::.switch_cpus.data       702289                       # number of WriteReq MSHR misses
system.cpu.dcache.WriteReq_mshr_misses::total       702289                       # number of WriteReq MSHR misses
system.cpu.dcache.WriteReq_mshr_miss_latency::.switch_cpus.data  18031054460                       # number of WriteReq MSHR miss cycles
system.cpu.dcache.WriteReq_mshr_miss_latency::total  18031054460                       # number of WriteReq MSHR miss cycles
system.cpu.dcache.WriteReq_mshr_miss_rate::.switch_cpus.data     0.012718                       # mshr miss rate for WriteReq accesses
system.cpu.dcache.WriteReq_mshr_miss_rate::total     0.002138                       # mshr miss rate for WriteReq accesses
system.cpu.dcache.WriteReq_avg_mshr_miss_latency::.switch_cpus.data 25674.692983                       # average WriteReq mshr miss latency
system.cpu.dcache.WriteReq_avg_mshr_miss_latency::total 25674.692983                       # average WriteReq mshr miss latency
system.cpu.dcache.tags.pwrStateResidencyTicks::UNDEFINED 1402635923500                       # Cumulative time (in ticks) in various power states
system.cpu.dcache.tags.tagsinuse           255.996692                       # Cycle average of tags in use
system.cpu.dcache.tags.total_refs           698471956                       # Total number of references to valid blocks.
system.cpu.dcache.tags.sampled_refs          31209949                       # Sample count of references to valid blocks.
system.cpu.dcache.tags.avg_refs             22.379785                       # Average number of references to valid blocks.
system.cpu.dcache.tags.warmup_cycle              1000                       # Cycle when the warmup percentage was hit.
system.cpu.dcache.tags.occ_blocks::.cpu.data   190.272443                       # Average occupied blocks per requestor
system.cpu.dcache.tags.occ_blocks::.switch_cpus.data    65.724250                       # Average occupied blocks per requestor
system.cpu.dcache.tags.occ_percent::.cpu.data     0.743252                       # Average percentage of cache occupancy
system.cpu.dcache.tags.occ_percent::.switch_cpus.data     0.256735                       # Average percentage of cache occupancy
system.cpu.dcache.tags.occ_percent::total     0.999987                       # Average percentage of cache occupancy
system.cpu.dcache.tags.occ_task_id_blocks::1024          256                       # Occupied blocks per task id
system.cpu.dcache.tags.age_task_id_blocks_1024::0           68                       # Occupied blocks per task id
system.cpu.dcache.tags.age_task_id_blocks_1024::1          103                       # Occupied blocks per task id
system.cpu.dcache.tags.age_task_id_blocks_1024::2           77                       # Occupied blocks per task id
system.cpu.dcache.tags.age_task_id_blocks_1024::3            8                       # Occupied blocks per task id
system.cpu.dcache.tags.occ_task_id_percent::1024            1                       # Percentage of cache occupancy per task id
system.cpu.dcache.tags.tag_accesses        1431585107                       # Number of tag accesses
system.cpu.dcache.tags.data_accesses       1431585107                       # Number of data accesses

---------- End Simulation Statistics   ----------
