
---------- Begin Simulation Statistics ----------
final_tick                               2124956256500                       # Number of ticks from beginning of simulation (restored from checkpoints and never reset)
host_inst_rate                                 182685                       # Simulator instruction rate (inst/s)
host_mem_usage                                4518776                       # Number of bytes of host memory used
host_op_rate                                   365064                       # Simulator op (including micro ops) rate (op/s)
host_seconds                                  8210.83                       # Real time elapsed on the host
host_tick_rate                              116996551                       # Simulator tick rate (ticks/s)
sim_freq                                 1000000000000                       # Frequency of simulated ticks
sim_insts                                  1500000001                       # Number of instructions simulated
sim_ops                                    2997477086                       # Number of ops (including micro ops) simulated
sim_seconds                                  0.960639                       # Number of seconds simulated
sim_ticks                                960639349000                       # Number of ticks simulated
system.cpu.committedInsts                           0                       # Number of instructions committed
system.cpu.committedOps                             0                       # Number of ops (including micro ops) committed
system.cpu.dtb.rdAccesses                           0                       # TLB accesses on read requests
system.cpu.dtb.rdMisses                             0                       # TLB misses on read requests
system.cpu.dtb.wrAccesses                           0                       # TLB accesses on write requests
system.cpu.dtb.wrMisses                             0                       # TLB misses on write requests
system.cpu.idle_fraction                            0                       # Percentage of idle cycles
system.cpu.itb.rdAccesses                           0                       # TLB accesses on read requests
system.cpu.itb.rdMisses                             0                       # TLB misses on read requests
system.cpu.itb.wrAccesses                           0                       # TLB accesses on write requests
system.cpu.itb.wrMisses                             0                       # TLB misses on write requests
system.cpu.not_idle_fraction                        1                       # Percentage of non-idle cycles
system.cpu.numCycles                                0                       # number of cpu cycles simulated
system.cpu.numWorkItemsCompleted                    0                       # number of work items this cpu completed
system.cpu.numWorkItemsStarted                      0                       # number of work items this cpu started
system.cpu.num_busy_cycles                          0                       # Number of busy cycles
system.cpu.num_conditional_control_insts            0                       # number of instructions that are conditional controls
system.cpu.num_fp_alu_accesses                      0                       # Number of float alu accesses
system.cpu.num_fp_insts                             0                       # number of float instructions
system.cpu.num_fp_register_reads                    0                       # number of times the floating registers were read
system.cpu.num_fp_register_writes                   0                       # number of times the floating registers were written
system.cpu.num_func_calls                           0                       # number of times a function call or return occured
system.cpu.num_idle_cycles                          0                       # Number of idle cycles
system.cpu.num_int_alu_accesses                     0                       # Number of integer alu accesses
system.cpu.num_int_insts                            0                       # number of integer instructions
system.cpu.num_int_register_reads                   0                       # number of times the integer registers were read
system.cpu.num_int_register_writes                  0                       # number of times the integer registers were written
system.cpu.num_load_insts                           0                       # Number of load instructions
system.cpu.num_mem_refs                             0                       # number of memory refs
system.cpu.num_store_insts                          0                       # Number of store instructions
system.cpu.num_vec_alu_accesses                     0                       # Number of vector alu accesses
system.cpu.num_vec_insts                            0                       # number of vector instructions
system.cpu.num_vec_register_reads                   0                       # number of times the vector registers were read
system.cpu.num_vec_register_writes                  0                       # number of times the vector registers were written
system.cpu.op_class::No_OpClass                     0                       # Class of executed instruction
system.cpu.op_class::IntAlu                         0                       # Class of executed instruction
system.cpu.op_class::IntMult                        0                       # Class of executed instruction
system.cpu.op_class::IntDiv                         0                       # Class of executed instruction
system.cpu.op_class::FloatAdd                       0                       # Class of executed instruction
system.cpu.op_class::FloatCmp                       0                       # Class of executed instruction
system.cpu.op_class::FloatCvt                       0                       # Class of executed instruction
system.cpu.op_class::FloatMult                      0                       # Class of executed instruction
system.cpu.op_class::FloatMultAcc                   0                       # Class of executed instruction
system.cpu.op_class::FloatDiv                       0                       # Class of executed instruction
system.cpu.op_class::FloatMisc                      0                       # Class of executed instruction
system.cpu.op_class::FloatSqrt                      0                       # Class of executed instruction
system.cpu.op_class::SimdAdd                        0                       # Class of executed instruction
system.cpu.op_class::SimdAddAcc                     0                       # Class of executed instruction
system.cpu.op_class::SimdAlu                        0                       # Class of executed instruction
system.cpu.op_class::SimdCmp                        0                       # Class of executed instruction
system.cpu.op_class::SimdCvt                        0                       # Class of executed instruction
system.cpu.op_class::SimdMisc                       0                       # Class of executed instruction
system.cpu.op_class::SimdMult                       0                       # Class of executed instruction
system.cpu.op_class::SimdMultAcc                    0                       # Class of executed instruction
system.cpu.op_class::SimdShift                      0                       # Class of executed instruction
system.cpu.op_class::SimdShiftAcc                   0                       # Class of executed instruction
system.cpu.op_class::SimdDiv                        0                       # Class of executed instruction
system.cpu.op_class::SimdSqrt                       0                       # Class of executed instruction
system.cpu.op_class::SimdFloatAdd                   0                       # Class of executed instruction
system.cpu.op_class::SimdFloatAlu                   0                       # Class of executed instruction
system.cpu.op_class::SimdFloatCmp                   0                       # Class of executed instruction
system.cpu.op_class::SimdFloatCvt                   0                       # Class of executed instruction
system.cpu.op_class::SimdFloatDiv                   0                       # Class of executed instruction
system.cpu.op_class::SimdFloatMisc                  0                       # Class of executed instruction
system.cpu.op_class::SimdFloatMult                  0                       # Class of executed instruction
system.cpu.op_class::SimdFloatMultAcc               0                       # Class of executed instruction
system.cpu.op_class::SimdFloatSqrt                  0                       # Class of executed instruction
system.cpu.op_class::SimdReduceAdd                  0                       # Class of executed instruction
system.cpu.op_class::SimdReduceAlu                  0                       # Class of executed instruction
system.cpu.op_class::SimdReduceCmp                  0                       # Class of executed instruction
system.cpu.op_class::SimdFloatReduceAdd             0                       # Class of executed instruction
system.cpu.op_class::SimdFloatReduceCmp             0                       # Class of executed instruction
system.cpu.op_class::SimdAes                        0                       # Class of executed instruction
system.cpu.op_class::SimdAesMix                     0                       # Class of executed instruction
system.cpu.op_class::SimdSha1Hash                   0                       # Class of executed instruction
system.cpu.op_class::SimdSha1Hash2                  0                       # Class of executed instruction
system.cpu.op_class::SimdSha256Hash                 0                       # Class of executed instruction
system.cpu.op_class::SimdSha256Hash2                0                       # Class of executed instruction
system.cpu.op_class::SimdShaSigma2                  0                       # Class of executed instruction
system.cpu.op_class::SimdShaSigma3                  0                       # Class of executed instruction
system.cpu.op_class::SimdPredAlu                    0                       # Class of executed instruction
system.cpu.op_class::MemRead                        0                       # Class of executed instruction
system.cpu.op_class::MemWrite                       0                       # Class of executed instruction
system.cpu.op_class::FloatMemRead                   0                       # Class of executed instruction
system.cpu.op_class::FloatMemWrite                  0                       # Class of executed instruction
system.cpu.op_class::IprAccess                      0                       # Class of executed instruction
system.cpu.op_class::InstPrefetch                   0                       # Class of executed instruction
system.cpu.op_class::total                          0                       # Class of executed instruction
system.cpu.workload.numSyscalls                    68                       # Number of system calls
system.membus.snoop_filter.hit_multi_requests            0                       # Number of requests hitting in the snoop filter with multiple (>1) holders of the requested data.
system.membus.snoop_filter.hit_multi_snoops            0                       # Number of snoops hitting in the snoop filter with multiple (>1) holders of the requested data.
system.membus.snoop_filter.hit_single_requests      2260352                       # Number of requests hitting in the snoop filter with a single holder of the requested data.
system.membus.snoop_filter.hit_single_snoops            0                       # Number of snoops hitting in the snoop filter with a single holder of the requested data.
system.membus.snoop_filter.tot_requests       4518758                       # Total number of requests made to the snoop filter.
system.membus.snoop_filter.tot_snoops               0                       # Total number of snoops made to the snoop filter.
system.switch_cpus.branchPred.BTBCorrect            0                       # Number of correct BTB predictions (this stat may not work properly.
system.switch_cpus.branchPred.BTBHitPct      0.000000                       # BTB Hit Percentage
system.switch_cpus.branchPred.BTBHits               0                       # Number of BTB hits
system.switch_cpus.branchPred.BTBLookups    223692497                       # Number of BTB lookups
system.switch_cpus.branchPred.RASInCorrect       204006                       # Number of incorrect RAS predictions.
system.switch_cpus.branchPred.condIncorrect     31876983                       # Number of conditional branches incorrect
system.switch_cpus.branchPred.condPredicted    193921232                       # Number of conditional branches predicted
system.switch_cpus.branchPred.indirectHits     65387791                       # Number of indirect target hits.
system.switch_cpus.branchPred.indirectLookups    223692497                       # Number of indirect predictor lookups.
system.switch_cpus.branchPred.indirectMisses    158304706                       # Number of indirect misses.
system.switch_cpus.branchPred.lookups       268153317                       # Number of BP lookups
system.switch_cpus.branchPred.usedRAS        27694169                       # Number of times the RAS was used to get a target.
system.switch_cpus.branchPredindirectMispredicted     30186501                       # Number of mispredicted indirect branches.
system.switch_cpus.cc_regfile_reads         621177770                       # number of cc regfile reads
system.switch_cpus.cc_regfile_writes        373901917                       # number of cc regfile writes
system.switch_cpus.commit.amos                      0                       # Number of atomic instructions committed
system.switch_cpus.commit.branchMispredicts     31898695                       # The number of times a branch was mispredicted
system.switch_cpus.commit.branches          107249788                       # Number of branches committed
system.switch_cpus.commit.bw_lim_events      39957271                       # number cycles where commit BW limit reached
system.switch_cpus.commit.commitNonSpecStalls        22373                       # The number of times commit has been forced to stall to communicate backwards
system.switch_cpus.commit.commitSquashedInsts    979244410                       # The number of squashed insts skipped by commit
system.switch_cpus.commit.committedInsts    500000001                       # Number of instructions committed
system.switch_cpus.commit.committedOps     1001239843                       # Number of ops (including micro ops) committed
system.switch_cpus.commit.committed_per_cycle::samples   1328604400                       # Number of insts commited each cycle
system.switch_cpus.commit.committed_per_cycle::mean     0.753603                       # Number of insts commited each cycle
system.switch_cpus.commit.committed_per_cycle::stdev     1.797999                       # Number of insts commited each cycle
system.switch_cpus.commit.committed_per_cycle::underflows            0      0.00%      0.00% # Number of insts commited each cycle
system.switch_cpus.commit.committed_per_cycle::0   1033122462     77.76%     77.76% # Number of insts commited each cycle
system.switch_cpus.commit.committed_per_cycle::1     78830004      5.93%     83.69% # Number of insts commited each cycle
system.switch_cpus.commit.committed_per_cycle::2     57134313      4.30%     87.99% # Number of insts commited each cycle
system.switch_cpus.commit.committed_per_cycle::3     56248519      4.23%     92.23% # Number of insts commited each cycle
system.switch_cpus.commit.committed_per_cycle::4     23994188      1.81%     94.03% # Number of insts commited each cycle
system.switch_cpus.commit.committed_per_cycle::5     18662669      1.40%     95.44% # Number of insts commited each cycle
system.switch_cpus.commit.committed_per_cycle::6     14137434      1.06%     96.50% # Number of insts commited each cycle
system.switch_cpus.commit.committed_per_cycle::7      6517540      0.49%     96.99% # Number of insts commited each cycle
system.switch_cpus.commit.committed_per_cycle::8     39957271      3.01%    100.00% # Number of insts commited each cycle
system.switch_cpus.commit.committed_per_cycle::overflows            0      0.00%    100.00% # Number of insts commited each cycle
system.switch_cpus.commit.committed_per_cycle::min_value            0                       # Number of insts commited each cycle
system.switch_cpus.commit.committed_per_cycle::max_value            8                       # Number of insts commited each cycle
system.switch_cpus.commit.committed_per_cycle::total   1328604400                       # Number of insts commited each cycle
system.switch_cpus.commit.fp_insts            9673666                       # Number of committed floating point instructions.
system.switch_cpus.commit.function_calls     11467274                       # Number of function calls committed.
system.switch_cpus.commit.int_insts         995993985                       # Number of committed integer instructions.
system.switch_cpus.commit.loads             163190000                       # Number of loads committed
system.switch_cpus.commit.membars                8700                       # Number of memory barriers committed
system.switch_cpus.commit.op_class_0::No_OpClass       936445      0.09%      0.09% # Class of committed instruction
system.switch_cpus.commit.op_class_0::IntAlu    742566383     74.16%     74.26% # Class of committed instruction
system.switch_cpus.commit.op_class_0::IntMult        19542      0.00%     74.26% # Class of committed instruction
system.switch_cpus.commit.op_class_0::IntDiv        25867      0.00%     74.26% # Class of committed instruction
system.switch_cpus.commit.op_class_0::FloatAdd       961262      0.10%     74.36% # Class of committed instruction
system.switch_cpus.commit.op_class_0::FloatCmp            0      0.00%     74.36% # Class of committed instruction
system.switch_cpus.commit.op_class_0::FloatCvt            0      0.00%     74.36% # Class of committed instruction
system.switch_cpus.commit.op_class_0::FloatMult            0      0.00%     74.36% # Class of committed instruction
system.switch_cpus.commit.op_class_0::FloatMultAcc            0      0.00%     74.36% # Class of committed instruction
system.switch_cpus.commit.op_class_0::FloatDiv            0      0.00%     74.36% # Class of committed instruction
system.switch_cpus.commit.op_class_0::FloatMisc            0      0.00%     74.36% # Class of committed instruction
system.switch_cpus.commit.op_class_0::FloatSqrt            0      0.00%     74.36% # Class of committed instruction
system.switch_cpus.commit.op_class_0::SimdAdd            0      0.00%     74.36% # Class of committed instruction
system.switch_cpus.commit.op_class_0::SimdAddAcc            0      0.00%     74.36% # Class of committed instruction
system.switch_cpus.commit.op_class_0::SimdAlu       264674      0.03%     74.39% # Class of committed instruction
system.switch_cpus.commit.op_class_0::SimdCmp            0      0.00%     74.39% # Class of committed instruction
system.switch_cpus.commit.op_class_0::SimdCvt            0      0.00%     74.39% # Class of committed instruction
system.switch_cpus.commit.op_class_0::SimdMisc      1248466      0.12%     74.51% # Class of committed instruction
system.switch_cpus.commit.op_class_0::SimdMult            0      0.00%     74.51% # Class of committed instruction
system.switch_cpus.commit.op_class_0::SimdMultAcc            0      0.00%     74.51% # Class of committed instruction
system.switch_cpus.commit.op_class_0::SimdShift            0      0.00%     74.51% # Class of committed instruction
system.switch_cpus.commit.op_class_0::SimdShiftAcc            0      0.00%     74.51% # Class of committed instruction
system.switch_cpus.commit.op_class_0::SimdDiv            0      0.00%     74.51% # Class of committed instruction
system.switch_cpus.commit.op_class_0::SimdSqrt            0      0.00%     74.51% # Class of committed instruction
system.switch_cpus.commit.op_class_0::SimdFloatAdd            0      0.00%     74.51% # Class of committed instruction
system.switch_cpus.commit.op_class_0::SimdFloatAlu            0      0.00%     74.51% # Class of committed instruction
system.switch_cpus.commit.op_class_0::SimdFloatCmp            0      0.00%     74.51% # Class of committed instruction
system.switch_cpus.commit.op_class_0::SimdFloatCvt      1096035      0.11%     74.62% # Class of committed instruction
system.switch_cpus.commit.op_class_0::SimdFloatDiv            0      0.00%     74.62% # Class of committed instruction
system.switch_cpus.commit.op_class_0::SimdFloatMisc            0      0.00%     74.62% # Class of committed instruction
system.switch_cpus.commit.op_class_0::SimdFloatMult       132370      0.01%     74.63% # Class of committed instruction
system.switch_cpus.commit.op_class_0::SimdFloatMultAcc            0      0.00%     74.63% # Class of committed instruction
system.switch_cpus.commit.op_class_0::SimdFloatSqrt            0      0.00%     74.63% # Class of committed instruction
system.switch_cpus.commit.op_class_0::SimdReduceAdd            0      0.00%     74.63% # Class of committed instruction
system.switch_cpus.commit.op_class_0::SimdReduceAlu            0      0.00%     74.63% # Class of committed instruction
system.switch_cpus.commit.op_class_0::SimdReduceCmp            0      0.00%     74.63% # Class of committed instruction
system.switch_cpus.commit.op_class_0::SimdFloatReduceAdd            0      0.00%     74.63% # Class of committed instruction
system.switch_cpus.commit.op_class_0::SimdFloatReduceCmp            0      0.00%     74.63% # Class of committed instruction
system.switch_cpus.commit.op_class_0::SimdAes            0      0.00%     74.63% # Class of committed instruction
system.switch_cpus.commit.op_class_0::SimdAesMix            0      0.00%     74.63% # Class of committed instruction
system.switch_cpus.commit.op_class_0::SimdSha1Hash            0      0.00%     74.63% # Class of committed instruction
system.switch_cpus.commit.op_class_0::SimdSha1Hash2            0      0.00%     74.63% # Class of committed instruction
system.switch_cpus.commit.op_class_0::SimdSha256Hash            0      0.00%     74.63% # Class of committed instruction
system.switch_cpus.commit.op_class_0::SimdSha256Hash2            0      0.00%     74.63% # Class of committed instruction
system.switch_cpus.commit.op_class_0::SimdShaSigma2            0      0.00%     74.63% # Class of committed instruction
system.switch_cpus.commit.op_class_0::SimdShaSigma3            0      0.00%     74.63% # Class of committed instruction
system.switch_cpus.commit.op_class_0::SimdPredAlu            0      0.00%     74.63% # Class of committed instruction
system.switch_cpus.commit.op_class_0::MemRead    160218652     16.00%     90.63% # Class of committed instruction
system.switch_cpus.commit.op_class_0::MemWrite     88221788      8.81%     99.45% # Class of committed instruction
system.switch_cpus.commit.op_class_0::FloatMemRead      2971348      0.30%     99.74% # Class of committed instruction
system.switch_cpus.commit.op_class_0::FloatMemWrite      2577010      0.26%    100.00% # Class of committed instruction
system.switch_cpus.commit.op_class_0::IprAccess            0      0.00%    100.00% # Class of committed instruction
system.switch_cpus.commit.op_class_0::InstPrefetch            0      0.00%    100.00% # Class of committed instruction
system.switch_cpus.commit.op_class_0::total   1001239842                       # Class of committed instruction
system.switch_cpus.commit.refs              253988798                       # Number of memory references committed
system.switch_cpus.commit.swp_count                 0                       # Number of s/w prefetches committed
system.switch_cpus.commit.vec_insts                 0                       # Number of committed Vector instructions.
system.switch_cpus.committedInsts           500000000                       # Number of Instructions Simulated
system.switch_cpus.committedOps            1001239842                       # Number of Ops (including micro ops) Simulated
system.switch_cpus.cpi                       3.842557                       # CPI: Cycles Per Instruction
system.switch_cpus.cpi_total                 3.842557                       # CPI: Total CPI of All Threads
system.switch_cpus.decode.BlockedCycles     239697845                       # Number of cycles decode is blocked
system.switch_cpus.decode.DecodedInsts     2210453310                       # Number of instructions handled by decode
system.switch_cpus.decode.IdleCycles        874810450                       # Number of cycles decode is idle
system.switch_cpus.decode.RunCycles         313070102                       # Number of cycles decode is running
system.switch_cpus.decode.SquashCycles       32270531                       # Number of cycles decode is squashing
system.switch_cpus.decode.UnblockCycles      18861820                       # Number of cycles decode is unblocking
system.switch_cpus.dtb.rdAccesses           253221307                       # TLB accesses on read requests
system.switch_cpus.dtb.rdMisses               4662521                       # TLB misses on read requests
system.switch_cpus.dtb.wrAccesses           148923693                       # TLB accesses on write requests
system.switch_cpus.dtb.wrMisses                300625                       # TLB misses on write requests
system.switch_cpus.fetch.Branches           268153317                       # Number of branches that fetch encountered
system.switch_cpus.fetch.CacheLines         169943096                       # Number of cache lines fetched
system.switch_cpus.fetch.Cycles             494866433                       # Number of cycles fetch has run and was not squashing or blocked
system.switch_cpus.fetch.IcacheSquashes      18457392                       # Number of outstanding Icache misses that were squashed
system.switch_cpus.fetch.IcacheWaitRetryStallCycles    195411097                       # Number of stall cycles due to full MSHR
system.switch_cpus.fetch.Insts             1147476715                       # Number of instructions fetch has processed
system.switch_cpus.fetch.MiscStallCycles     41755040                       # Number of cycles fetch has spent waiting on interrupts, or bad addresses, or out of MSHRs
system.switch_cpus.fetch.PendingTrapStallCycles       214502                       # Number of stall cycles due to pending traps
system.switch_cpus.fetch.SquashCycles        64541062                       # Number of cycles fetch has spent squashing
system.switch_cpus.fetch.branchRate          0.139570                       # Number of branch fetches per cycle
system.switch_cpus.fetch.icacheStallCycles    714193152                       # Number of cycles fetch is stalled on an Icache miss
system.switch_cpus.fetch.predictedBranches     93081960                       # Number of branches that fetch has predicted taken
system.switch_cpus.fetch.rate                0.597246                       # Number of inst fetches per cycle
system.switch_cpus.fetch.rateDist::samples   1478710755                       # Number of instructions fetched each cycle (Total)
system.switch_cpus.fetch.rateDist::mean      1.591042                       # Number of instructions fetched each cycle (Total)
system.switch_cpus.fetch.rateDist::stdev     2.990045                       # Number of instructions fetched each cycle (Total)
system.switch_cpus.fetch.rateDist::underflows            0      0.00%      0.00% # Number of instructions fetched each cycle (Total)
system.switch_cpus.fetch.rateDist::0       1109566087     75.04%     75.04% # Number of instructions fetched each cycle (Total)
system.switch_cpus.fetch.rateDist::1         22974003      1.55%     76.59% # Number of instructions fetched each cycle (Total)
system.switch_cpus.fetch.rateDist::2         12519717      0.85%     77.44% # Number of instructions fetched each cycle (Total)
system.switch_cpus.fetch.rateDist::3         29603029      2.00%     79.44% # Number of instructions fetched each cycle (Total)
system.switch_cpus.fetch.rateDist::4         17211009      1.16%     80.60% # Number of instructions fetched each cycle (Total)
system.switch_cpus.fetch.rateDist::5         24309994      1.64%     82.25% # Number of instructions fetched each cycle (Total)
system.switch_cpus.fetch.rateDist::6         30112464      2.04%     84.28% # Number of instructions fetched each cycle (Total)
system.switch_cpus.fetch.rateDist::7         14515411      0.98%     85.26% # Number of instructions fetched each cycle (Total)
system.switch_cpus.fetch.rateDist::8        217899041     14.74%    100.00% # Number of instructions fetched each cycle (Total)
system.switch_cpus.fetch.rateDist::overflows            0      0.00%    100.00% # Number of instructions fetched each cycle (Total)
system.switch_cpus.fetch.rateDist::min_value            0                       # Number of instructions fetched each cycle (Total)
system.switch_cpus.fetch.rateDist::max_value            8                       # Number of instructions fetched each cycle (Total)
system.switch_cpus.fetch.rateDist::total   1478710755                       # Number of instructions fetched each cycle (Total)
system.switch_cpus.fp_regfile_reads          12110203                       # number of floating regfile reads
system.switch_cpus.fp_regfile_writes          8975176                       # number of floating regfile writes
system.switch_cpus.idleCycles               442567943                       # Total number of cycles that the CPU has spent unscheduled due to idling
system.switch_cpus.iew.branchMispredicts     41819696                       # Number of branch mispredicts detected at execute
system.switch_cpus.iew.exec_branches        154006480                       # Number of branches executed
system.switch_cpus.iew.exec_nop                     0                       # number of nop insts executed
system.switch_cpus.iew.exec_rate             0.895069                       # Inst execution rate
system.switch_cpus.iew.exec_refs            460805658                       # number of memory reference insts executed
system.switch_cpus.iew.exec_stores          148853147                       # Number of stores executed
system.switch_cpus.iew.exec_swp                     0                       # number of swp insts executed
system.switch_cpus.iew.iewBlockCycles       160317411                       # Number of cycles IEW is blocking
system.switch_cpus.iew.iewDispLoadInsts     310856863                       # Number of dispatched load instructions
system.switch_cpus.iew.iewDispNonSpecInsts        18937                       # Number of dispatched non-speculative instructions
system.switch_cpus.iew.iewDispSquashedInsts      1163736                       # Number of squashed instructions skipped by dispatch
system.switch_cpus.iew.iewDispStoreInsts    188015663                       # Number of dispatched store instructions
system.switch_cpus.iew.iewDispatchedInsts   1983593372                       # Number of instructions dispatched to IQ
system.switch_cpus.iew.iewExecLoadInsts     311952511                       # Number of load instructions executed
system.switch_cpus.iew.iewExecSquashedInsts     54967191                       # Number of squashed instructions skipped in execute
system.switch_cpus.iew.iewExecutedInsts    1719677663                       # Number of executed instructions
system.switch_cpus.iew.iewIQFullEvents        1589965                       # Number of times the IQ has become full, causing a stall
system.switch_cpus.iew.iewIdleCycles                0                       # Number of cycles IEW is idle
system.switch_cpus.iew.iewLSQFullEvents       8397493                       # Number of times the LSQ has become full, causing a stall
system.switch_cpus.iew.iewSquashCycles       32270531                       # Number of cycles IEW is squashing
system.switch_cpus.iew.iewUnblockCycles      10301764                       # Number of cycles IEW is unblocking
system.switch_cpus.iew.lsq.thread0.blockedLoads            0                       # Number of blocked loads due to partial load-store forwarding
system.switch_cpus.iew.lsq.thread0.cacheBlocked     14148170                       # Number of times an access to memory failed due to the cache being blocked
system.switch_cpus.iew.lsq.thread0.forwLoads     23666561                       # Number of loads that had data forwarded from stores
system.switch_cpus.iew.lsq.thread0.ignoredResponses       305581                       # Number of memory responses ignored because the instruction is squashed
system.switch_cpus.iew.lsq.thread0.invAddrLoads            0                       # Number of loads ignored due to an invalid address
system.switch_cpus.iew.lsq.thread0.invAddrSwpfs            0                       # Number of software prefetches ignored due to an invalid address
system.switch_cpus.iew.lsq.thread0.memOrderViolation       281805                       # Number of memory ordering violations
system.switch_cpus.iew.lsq.thread0.rescheduledLoads        13199                       # Number of loads that were rescheduled
system.switch_cpus.iew.lsq.thread0.squashedLoads    147666863                       # Number of loads squashed
system.switch_cpus.iew.lsq.thread0.squashedStores     97216865                       # Number of stores squashed
system.switch_cpus.iew.memOrderViolationEvents       281805                       # Number of memory order violations
system.switch_cpus.iew.predictedNotTakenIncorrect     37085166                       # Number of branches that were predicted not taken incorrectly
system.switch_cpus.iew.predictedTakenIncorrect      4734530                       # Number of branches that were predicted taken incorrectly
system.switch_cpus.iew.wb_consumers        1664614002                       # num instructions consuming a value
system.switch_cpus.iew.wb_count            1613652614                       # cumulative count of insts written-back
system.switch_cpus.iew.wb_fanout             0.687482                       # average fanout of values written-back
system.switch_cpus.iew.wb_producers        1144391466                       # num instructions producing a value
system.switch_cpus.iew.wb_rate               0.839885                       # insts written-back per cycle
system.switch_cpus.iew.wb_sent             1631115438                       # cumulative count of insts sent to commit
system.switch_cpus.int_regfile_reads       2263318424                       # number of integer regfile reads
system.switch_cpus.int_regfile_writes      1300960093                       # number of integer regfile writes
system.switch_cpus.ipc                       0.260243                       # IPC: Instructions Per Cycle
system.switch_cpus.ipc_total                 0.260243                       # IPC: Total IPC of All Threads
system.switch_cpus.iq.FU_type_0::No_OpClass     11345708      0.64%      0.64% # Type of FU issued
system.switch_cpus.iq.FU_type_0::IntAlu    1279564777     72.10%     72.74% # Type of FU issued
system.switch_cpus.iq.FU_type_0::IntMult        20914      0.00%     72.74% # Type of FU issued
system.switch_cpus.iq.FU_type_0::IntDiv         42552      0.00%     72.75% # Type of FU issued
system.switch_cpus.iq.FU_type_0::FloatAdd      1526522      0.09%     72.83% # Type of FU issued
system.switch_cpus.iq.FU_type_0::FloatCmp            0      0.00%     72.83% # Type of FU issued
system.switch_cpus.iq.FU_type_0::FloatCvt            0      0.00%     72.83% # Type of FU issued
system.switch_cpus.iq.FU_type_0::FloatMult            0      0.00%     72.83% # Type of FU issued
system.switch_cpus.iq.FU_type_0::FloatMultAcc            0      0.00%     72.83% # Type of FU issued
system.switch_cpus.iq.FU_type_0::FloatDiv            0      0.00%     72.83% # Type of FU issued
system.switch_cpus.iq.FU_type_0::FloatMisc            0      0.00%     72.83% # Type of FU issued
system.switch_cpus.iq.FU_type_0::FloatSqrt            0      0.00%     72.83% # Type of FU issued
system.switch_cpus.iq.FU_type_0::SimdAdd            3      0.00%     72.83% # Type of FU issued
system.switch_cpus.iq.FU_type_0::SimdAddAcc            0      0.00%     72.83% # Type of FU issued
system.switch_cpus.iq.FU_type_0::SimdAlu       423515      0.02%     72.86% # Type of FU issued
system.switch_cpus.iq.FU_type_0::SimdCmp            0      0.00%     72.86% # Type of FU issued
system.switch_cpus.iq.FU_type_0::SimdCvt         5824      0.00%     72.86% # Type of FU issued
system.switch_cpus.iq.FU_type_0::SimdMisc      1297551      0.07%     72.93% # Type of FU issued
system.switch_cpus.iq.FU_type_0::SimdMult            0      0.00%     72.93% # Type of FU issued
system.switch_cpus.iq.FU_type_0::SimdMultAcc            0      0.00%     72.93% # Type of FU issued
system.switch_cpus.iq.FU_type_0::SimdShift            0      0.00%     72.93% # Type of FU issued
system.switch_cpus.iq.FU_type_0::SimdShiftAcc            0      0.00%     72.93% # Type of FU issued
system.switch_cpus.iq.FU_type_0::SimdDiv            0      0.00%     72.93% # Type of FU issued
system.switch_cpus.iq.FU_type_0::SimdSqrt            0      0.00%     72.93% # Type of FU issued
system.switch_cpus.iq.FU_type_0::SimdFloatAdd         8242      0.00%     72.93% # Type of FU issued
system.switch_cpus.iq.FU_type_0::SimdFloatAlu            0      0.00%     72.93% # Type of FU issued
system.switch_cpus.iq.FU_type_0::SimdFloatCmp            0      0.00%     72.93% # Type of FU issued
system.switch_cpus.iq.FU_type_0::SimdFloatCvt      1381113      0.08%     73.01% # Type of FU issued
system.switch_cpus.iq.FU_type_0::SimdFloatDiv            0      0.00%     73.01% # Type of FU issued
system.switch_cpus.iq.FU_type_0::SimdFloatMisc            0      0.00%     73.01% # Type of FU issued
system.switch_cpus.iq.FU_type_0::SimdFloatMult       132370      0.01%     73.01% # Type of FU issued
system.switch_cpus.iq.FU_type_0::SimdFloatMultAcc            0      0.00%     73.01% # Type of FU issued
system.switch_cpus.iq.FU_type_0::SimdFloatSqrt            0      0.00%     73.01% # Type of FU issued
system.switch_cpus.iq.FU_type_0::SimdReduceAdd            0      0.00%     73.01% # Type of FU issued
system.switch_cpus.iq.FU_type_0::SimdReduceAlu            0      0.00%     73.01% # Type of FU issued
system.switch_cpus.iq.FU_type_0::SimdReduceCmp            0      0.00%     73.01% # Type of FU issued
system.switch_cpus.iq.FU_type_0::SimdFloatReduceAdd            0      0.00%     73.01% # Type of FU issued
system.switch_cpus.iq.FU_type_0::SimdFloatReduceCmp            0      0.00%     73.01% # Type of FU issued
system.switch_cpus.iq.FU_type_0::SimdAes            0      0.00%     73.01% # Type of FU issued
system.switch_cpus.iq.FU_type_0::SimdAesMix            0      0.00%     73.01% # Type of FU issued
system.switch_cpus.iq.FU_type_0::SimdSha1Hash            0      0.00%     73.01% # Type of FU issued
system.switch_cpus.iq.FU_type_0::SimdSha1Hash2            0      0.00%     73.01% # Type of FU issued
system.switch_cpus.iq.FU_type_0::SimdSha256Hash            0      0.00%     73.01% # Type of FU issued
system.switch_cpus.iq.FU_type_0::SimdSha256Hash2            0      0.00%     73.01% # Type of FU issued
system.switch_cpus.iq.FU_type_0::SimdShaSigma2            0      0.00%     73.01% # Type of FU issued
system.switch_cpus.iq.FU_type_0::SimdShaSigma3            0      0.00%     73.01% # Type of FU issued
system.switch_cpus.iq.FU_type_0::SimdPredAlu            0      0.00%     73.01% # Type of FU issued
system.switch_cpus.iq.FU_type_0::MemRead    315134950     17.76%     90.77% # Type of FU issued
system.switch_cpus.iq.FU_type_0::MemWrite    150739048      8.49%     99.27% # Type of FU issued
system.switch_cpus.iq.FU_type_0::FloatMemRead      7957614      0.45%     99.71% # Type of FU issued
system.switch_cpus.iq.FU_type_0::FloatMemWrite      5064151      0.29%    100.00% # Type of FU issued
system.switch_cpus.iq.FU_type_0::IprAccess            0      0.00%    100.00% # Type of FU issued
system.switch_cpus.iq.FU_type_0::InstPrefetch            0      0.00%    100.00% # Type of FU issued
system.switch_cpus.iq.FU_type_0::total     1774644854                       # Type of FU issued
system.switch_cpus.iq.fp_alu_accesses        20289195                       # Number of floating point alu accesses
system.switch_cpus.iq.fp_inst_queue_reads     39191995                       # Number of floating instruction queue reads
system.switch_cpus.iq.fp_inst_queue_wakeup_accesses     14993742                       # Number of floating instruction queue wakeup accesses
system.switch_cpus.iq.fp_inst_queue_writes     28486462                       # Number of floating instruction queue writes
system.switch_cpus.iq.fu_busy_cnt            29119527                       # FU busy when requested
system.switch_cpus.iq.fu_busy_rate           0.016409                       # FU busy rate (busy events/executed inst)
system.switch_cpus.iq.fu_full::No_OpClass            0      0.00%      0.00% # attempts to use FU when none available
system.switch_cpus.iq.fu_full::IntAlu        12865405     44.18%     44.18% # attempts to use FU when none available
system.switch_cpus.iq.fu_full::IntMult              0      0.00%     44.18% # attempts to use FU when none available
system.switch_cpus.iq.fu_full::IntDiv               0      0.00%     44.18% # attempts to use FU when none available
system.switch_cpus.iq.fu_full::FloatAdd             0      0.00%     44.18% # attempts to use FU when none available
system.switch_cpus.iq.fu_full::FloatCmp             0      0.00%     44.18% # attempts to use FU when none available
system.switch_cpus.iq.fu_full::FloatCvt             0      0.00%     44.18% # attempts to use FU when none available
system.switch_cpus.iq.fu_full::FloatMult            0      0.00%     44.18% # attempts to use FU when none available
system.switch_cpus.iq.fu_full::FloatMultAcc            0      0.00%     44.18% # attempts to use FU when none available
system.switch_cpus.iq.fu_full::FloatDiv             0      0.00%     44.18% # attempts to use FU when none available
system.switch_cpus.iq.fu_full::FloatMisc            0      0.00%     44.18% # attempts to use FU when none available
system.switch_cpus.iq.fu_full::FloatSqrt            0      0.00%     44.18% # attempts to use FU when none available
system.switch_cpus.iq.fu_full::SimdAdd              0      0.00%     44.18% # attempts to use FU when none available
system.switch_cpus.iq.fu_full::SimdAddAcc            0      0.00%     44.18% # attempts to use FU when none available
system.switch_cpus.iq.fu_full::SimdAlu              2      0.00%     44.18% # attempts to use FU when none available
system.switch_cpus.iq.fu_full::SimdCmp              0      0.00%     44.18% # attempts to use FU when none available
system.switch_cpus.iq.fu_full::SimdCvt              0      0.00%     44.18% # attempts to use FU when none available
system.switch_cpus.iq.fu_full::SimdMisc             0      0.00%     44.18% # attempts to use FU when none available
system.switch_cpus.iq.fu_full::SimdMult             0      0.00%     44.18% # attempts to use FU when none available
system.switch_cpus.iq.fu_full::SimdMultAcc            0      0.00%     44.18% # attempts to use FU when none available
system.switch_cpus.iq.fu_full::SimdShift            0      0.00%     44.18% # attempts to use FU when none available
system.switch_cpus.iq.fu_full::SimdShiftAcc            0      0.00%     44.18% # attempts to use FU when none available
system.switch_cpus.iq.fu_full::SimdDiv              0      0.00%     44.18% # attempts to use FU when none available
system.switch_cpus.iq.fu_full::SimdSqrt             0      0.00%     44.18% # attempts to use FU when none available
system.switch_cpus.iq.fu_full::SimdFloatAdd            0      0.00%     44.18% # attempts to use FU when none available
system.switch_cpus.iq.fu_full::SimdFloatAlu            0      0.00%     44.18% # attempts to use FU when none available
system.switch_cpus.iq.fu_full::SimdFloatCmp            0      0.00%     44.18% # attempts to use FU when none available
system.switch_cpus.iq.fu_full::SimdFloatCvt            0      0.00%     44.18% # attempts to use FU when none available
system.switch_cpus.iq.fu_full::SimdFloatDiv            0      0.00%     44.18% # attempts to use FU when none available
system.switch_cpus.iq.fu_full::SimdFloatMisc            0      0.00%     44.18% # attempts to use FU when none available
system.switch_cpus.iq.fu_full::SimdFloatMult            0      0.00%     44.18% # attempts to use FU when none available
system.switch_cpus.iq.fu_full::SimdFloatMultAcc            0      0.00%     44.18% # attempts to use FU when none available
system.switch_cpus.iq.fu_full::SimdFloatSqrt            0      0.00%     44.18% # attempts to use FU when none available
system.switch_cpus.iq.fu_full::SimdReduceAdd            0      0.00%     44.18% # attempts to use FU when none available
system.switch_cpus.iq.fu_full::SimdReduceAlu            0      0.00%     44.18% # attempts to use FU when none available
system.switch_cpus.iq.fu_full::SimdReduceCmp            0      0.00%     44.18% # attempts to use FU when none available
system.switch_cpus.iq.fu_full::SimdFloatReduceAdd            0      0.00%     44.18% # attempts to use FU when none available
system.switch_cpus.iq.fu_full::SimdFloatReduceCmp            0      0.00%     44.18% # attempts to use FU when none available
system.switch_cpus.iq.fu_full::SimdAes              0      0.00%     44.18% # attempts to use FU when none available
system.switch_cpus.iq.fu_full::SimdAesMix            0      0.00%     44.18% # attempts to use FU when none available
system.switch_cpus.iq.fu_full::SimdSha1Hash            0      0.00%     44.18% # attempts to use FU when none available
system.switch_cpus.iq.fu_full::SimdSha1Hash2            0      0.00%     44.18% # attempts to use FU when none available
system.switch_cpus.iq.fu_full::SimdSha256Hash            0      0.00%     44.18% # attempts to use FU when none available
system.switch_cpus.iq.fu_full::SimdSha256Hash2            0      0.00%     44.18% # attempts to use FU when none available
system.switch_cpus.iq.fu_full::SimdShaSigma2            0      0.00%     44.18% # attempts to use FU when none available
system.switch_cpus.iq.fu_full::SimdShaSigma3            0      0.00%     44.18% # attempts to use FU when none available
system.switch_cpus.iq.fu_full::SimdPredAlu            0      0.00%     44.18% # attempts to use FU when none available
system.switch_cpus.iq.fu_full::MemRead       11272178     38.71%     82.89% # attempts to use FU when none available
system.switch_cpus.iq.fu_full::MemWrite       2977976     10.23%     93.12% # attempts to use FU when none available
system.switch_cpus.iq.fu_full::FloatMemRead      1371217      4.71%     97.83% # attempts to use FU when none available
system.switch_cpus.iq.fu_full::FloatMemWrite       632749      2.17%    100.00% # attempts to use FU when none available
system.switch_cpus.iq.fu_full::IprAccess            0      0.00%    100.00% # attempts to use FU when none available
system.switch_cpus.iq.fu_full::InstPrefetch            0      0.00%    100.00% # attempts to use FU when none available
system.switch_cpus.iq.int_alu_accesses     1772129478                       # Number of integer alu accesses
system.switch_cpus.iq.int_inst_queue_reads   5031290928                       # Number of integer instruction queue reads
system.switch_cpus.iq.int_inst_queue_wakeup_accesses   1598658872                       # Number of integer instruction queue wakeup accesses
system.switch_cpus.iq.int_inst_queue_writes   2937725787                       # Number of integer instruction queue writes
system.switch_cpus.iq.iqInstsAdded         1983441840                       # Number of instructions added to the IQ (excludes non-spec)
system.switch_cpus.iq.iqInstsIssued        1774644854                       # Number of instructions issued
system.switch_cpus.iq.iqNonSpecInstsAdded       151532                       # Number of non-speculative instructions added to the IQ
system.switch_cpus.iq.iqSquashedInstsExamined    982353529                       # Number of squashed instructions iterated over during squash; mainly for profiling
system.switch_cpus.iq.iqSquashedInstsIssued     13362933                       # Number of squashed instructions issued
system.switch_cpus.iq.iqSquashedNonSpecRemoved       129159                       # Number of squashed non-spec instructions that were removed
system.switch_cpus.iq.iqSquashedOperandsExamined   1185632243                       # Number of squashed operands that are examined and possibly removed from graph
system.switch_cpus.iq.issued_per_cycle::samples   1478710755                       # Number of insts issued each cycle
system.switch_cpus.iq.issued_per_cycle::mean     1.200130                       # Number of insts issued each cycle
system.switch_cpus.iq.issued_per_cycle::stdev     2.037112                       # Number of insts issued each cycle
system.switch_cpus.iq.issued_per_cycle::underflows            0      0.00%      0.00% # Number of insts issued each cycle
system.switch_cpus.iq.issued_per_cycle::0    974520849     65.90%     65.90% # Number of insts issued each cycle
system.switch_cpus.iq.issued_per_cycle::1     99600698      6.74%     72.64% # Number of insts issued each cycle
system.switch_cpus.iq.issued_per_cycle::2     94114412      6.36%     79.00% # Number of insts issued each cycle
system.switch_cpus.iq.issued_per_cycle::3     73498749      4.97%     83.97% # Number of insts issued each cycle
system.switch_cpus.iq.issued_per_cycle::4     76481669      5.17%     89.15% # Number of insts issued each cycle
system.switch_cpus.iq.issued_per_cycle::5     63511824      4.30%     93.44% # Number of insts issued each cycle
system.switch_cpus.iq.issued_per_cycle::6     52836128      3.57%     97.01% # Number of insts issued each cycle
system.switch_cpus.iq.issued_per_cycle::7     27354887      1.85%     98.86% # Number of insts issued each cycle
system.switch_cpus.iq.issued_per_cycle::8     16791539      1.14%    100.00% # Number of insts issued each cycle
system.switch_cpus.iq.issued_per_cycle::overflows            0      0.00%    100.00% # Number of insts issued each cycle
system.switch_cpus.iq.issued_per_cycle::min_value            0                       # Number of insts issued each cycle
system.switch_cpus.iq.issued_per_cycle::max_value            8                       # Number of insts issued each cycle
system.switch_cpus.iq.issued_per_cycle::total   1478710755                       # Number of insts issued each cycle
system.switch_cpus.iq.rate                   0.923679                       # Inst issue rate
system.switch_cpus.iq.vec_alu_accesses              0                       # Number of vector alu accesses
system.switch_cpus.iq.vec_inst_queue_reads            0                       # Number of vector instruction queue reads
system.switch_cpus.iq.vec_inst_queue_wakeup_accesses            0                       # Number of vector instruction queue wakeup accesses
system.switch_cpus.iq.vec_inst_queue_writes            0                       # Number of vector instruction queue writes
system.switch_cpus.itb.rdAccesses                   0                       # TLB accesses on read requests
system.switch_cpus.itb.rdMisses                     0                       # TLB misses on read requests
system.switch_cpus.itb.wrAccesses           170008875                       # TLB accesses on write requests
system.switch_cpus.itb.wrMisses                350571                       # TLB misses on write requests
system.switch_cpus.memDep0.conflictingLoads     19555239                       # Number of conflicting loads.
system.switch_cpus.memDep0.conflictingStores     23890153                       # Number of conflicting stores.
system.switch_cpus.memDep0.insertedLoads    310856863                       # Number of loads inserted to the mem dependence unit.
system.switch_cpus.memDep0.insertedStores    188015663                       # Number of stores inserted to the mem dependence unit.
system.switch_cpus.misc_regfile_reads       923681057                       # number of misc regfile reads
system.switch_cpus.numCycles               1921278698                       # number of cpu cycles simulated
system.switch_cpus.numWorkItemsCompleted            0                       # number of work items this cpu completed
system.switch_cpus.numWorkItemsStarted              0                       # number of work items this cpu started
system.switch_cpus.rename.BlockCycles       191841860                       # Number of cycles rename is blocking
system.switch_cpus.rename.CommittedMaps    1062350861                       # Number of HB maps that are committed
system.switch_cpus.rename.FullRegisterEvents         2198                       # Number of times there has been no free registers
system.switch_cpus.rename.IQFullEvents       22456969                       # Number of times rename has blocked due to IQ full
system.switch_cpus.rename.IdleCycles        889616111                       # Number of cycles rename is idle
system.switch_cpus.rename.LQFullEvents        8698692                       # Number of times rename has blocked due to LQ full
system.switch_cpus.rename.ROBFullEvents       1591048                       # Number of times rename has blocked due to ROB full
system.switch_cpus.rename.RenameLookups    5075567181                       # Number of register rename lookups that rename has made
system.switch_cpus.rename.RenamedInsts     2133576996                       # Number of instructions processed by rename
system.switch_cpus.rename.RenamedOperands   2222512484                       # Number of destination operands rename has renamed
system.switch_cpus.rename.RunCycles         314721621                       # Number of cycles rename is running
system.switch_cpus.rename.SQFullEvents       19865332                       # Number of times rename has blocked due to SQ full
system.switch_cpus.rename.SquashCycles       32270531                       # Number of cycles rename is squashing
system.switch_cpus.rename.UnblockCycles      50259225                       # Number of cycles rename is unblocking
system.switch_cpus.rename.UndoneMaps       1160161616                       # Number of HB maps that are undone due to squashing
system.switch_cpus.rename.fp_rename_lookups     16738411                       # Number of floating rename lookups
system.switch_cpus.rename.int_rename_lookups   2982272002                       # Number of integer rename lookups
system.switch_cpus.rename.serializeStallCycles         1400                       # count of cycles rename stalled for serializing inst
system.switch_cpus.rename.serializingInsts           71                       # count of serializing insts renamed
system.switch_cpus.rename.skidInsts          71008530                       # count of insts added to the skid buffer
system.switch_cpus.rename.tempSerializingInsts           71                       # count of temporary serializing insts renamed
system.switch_cpus.rob.rob_reads           3267316582                       # The number of ROB reads
system.switch_cpus.rob.rob_writes          4112654568                       # The number of ROB writes
system.switch_cpus.timesIdled                26312581                       # Number of times that the entire CPU went into an idle state and unscheduled itself
system.tol2bus.snoop_filter.hit_multi_requests        18312                       # Number of requests hitting in the snoop filter with multiple (>1) holders of the requested data.
system.tol2bus.snoop_filter.hit_multi_snoops         1910                       # Number of snoops hitting in the snoop filter with multiple (>1) holders of the requested data.
system.tol2bus.snoop_filter.hit_single_requests     56079956                       # Number of requests hitting in the snoop filter with a single holder of the requested data.
system.tol2bus.snoop_filter.hit_single_snoops       133968                       # Number of snoops hitting in the snoop filter with a single holder of the requested data.
system.tol2bus.snoop_filter.tot_requests    111875042                       # Total number of requests made to the snoop filter.
system.tol2bus.snoop_filter.tot_snoops         135878                       # Total number of snoops made to the snoop filter.
system.membus.pwrStateResidencyTicks::UNDEFINED 2124956256500                       # Cumulative time (in ticks) in various power states
system.membus.trans_dist::ReadResp            2070512                       # Transaction distribution
system.membus.trans_dist::WritebackDirty       411589                       # Transaction distribution
system.membus.trans_dist::CleanEvict          1846813                       # Transaction distribution
system.membus.trans_dist::UpgradeReq             1939                       # Transaction distribution
system.membus.trans_dist::ReadExReq            187905                       # Transaction distribution
system.membus.trans_dist::ReadExResp           187905                       # Transaction distribution
system.membus.trans_dist::ReadSharedReq       2070512                       # Transaction distribution
system.membus.pkt_count_system.l2.mem_side::system.mem_ctrls.port      6777175                       # Packet count per connected master and slave (bytes)
system.membus.pkt_count_system.l2.mem_side::total      6777175                       # Packet count per connected master and slave (bytes)
system.membus.pkt_count::total                6777175                       # Packet count per connected master and slave (bytes)
system.membus.pkt_size_system.l2.mem_side::system.mem_ctrls.port    170880384                       # Cumulative packet size per connected master and slave (bytes)
system.membus.pkt_size_system.l2.mem_side::total    170880384                       # Cumulative packet size per connected master and slave (bytes)
system.membus.pkt_size::total               170880384                       # Cumulative packet size per connected master and slave (bytes)
system.membus.snoops                                0                       # Total snoops (count)
system.membus.snoopTraffic                          0                       # Total snoop traffic (bytes)
system.membus.snoop_fanout::samples           2260356                       # Request fanout histogram
system.membus.snoop_fanout::mean                    0                       # Request fanout histogram
system.membus.snoop_fanout::stdev                   0                       # Request fanout histogram
system.membus.snoop_fanout::underflows              0      0.00%      0.00% # Request fanout histogram
system.membus.snoop_fanout::0                 2260356    100.00%    100.00% # Request fanout histogram
system.membus.snoop_fanout::1                       0      0.00%    100.00% # Request fanout histogram
system.membus.snoop_fanout::overflows               0      0.00%    100.00% # Request fanout histogram
system.membus.snoop_fanout::min_value               0                       # Request fanout histogram
system.membus.snoop_fanout::max_value               0                       # Request fanout histogram
system.membus.snoop_fanout::total             2260356                       # Request fanout histogram
system.membus.reqLayer2.occupancy          6808732060                       # Layer occupancy (ticks)
system.membus.reqLayer2.utilization               0.7                       # Layer utilization (%)
system.membus.respLayer1.occupancy        12221225362                       # Layer occupancy (ticks)
system.membus.respLayer1.utilization              1.3                       # Layer utilization (%)
system.switch_cpus.pwrStateResidencyTicks::OFF 2124956256500                       # Cumulative time (in ticks) in various power states
system.switch_cpus.dtb.walker.pwrStateResidencyTicks::UNDEFINED 2124956256500                       # Cumulative time (in ticks) in various power states
system.switch_cpus.itb.walker.pwrStateResidencyTicks::UNDEFINED 2124956256500                       # Cumulative time (in ticks) in various power states
system.tol2bus.pwrStateResidencyTicks::UNDEFINED 2124956256500                       # Cumulative time (in ticks) in various power states
system.tol2bus.trans_dist::ReadResp          53196972                       # Transaction distribution
system.tol2bus.trans_dist::WritebackDirty      5790235                       # Transaction distribution
system.tol2bus.trans_dist::WritebackClean     39416683                       # Transaction distribution
system.tol2bus.trans_dist::CleanEvict        12362095                       # Transaction distribution
system.tol2bus.trans_dist::UpgradeReq            2526                       # Transaction distribution
system.tol2bus.trans_dist::UpgradeResp           2526                       # Transaction distribution
system.tol2bus.trans_dist::ReadExReq          2044633                       # Transaction distribution
system.tol2bus.trans_dist::ReadExResp         2044633                       # Transaction distribution
system.tol2bus.trans_dist::ReadCleanReq      39419211                       # Transaction distribution
system.tol2bus.trans_dist::ReadSharedReq     13777763                       # Transaction distribution
system.tol2bus.pkt_count_system.cpu.icache.mem_side::system.l2.cpu_side    118252576                       # Packet count per connected master and slave (bytes)
system.tol2bus.pkt_count_system.cpu.dcache.mem_side::system.l2.cpu_side     47472238                       # Packet count per connected master and slave (bytes)
system.tol2bus.pkt_count::total             165724814                       # Packet count per connected master and slave (bytes)
system.tol2bus.pkt_size_system.cpu.icache.mem_side::system.l2.cpu_side   5045335360                       # Cumulative packet size per connected master and slave (bytes)
system.tol2bus.pkt_size_system.cpu.dcache.mem_side::system.l2.cpu_side   1356866624                       # Cumulative packet size per connected master and slave (bytes)
system.tol2bus.pkt_size::total             6402201984                       # Cumulative packet size per connected master and slave (bytes)
system.tol2bus.snoops                         2332463                       # Total snoops (count)
system.tol2bus.snoopTraffic                  26503488                       # Total snoop traffic (bytes)
system.tol2bus.snoop_fanout::samples         58126395                       # Request fanout histogram
system.tol2bus.snoop_fanout::mean            0.002709                       # Request fanout histogram
system.tol2bus.snoop_fanout::stdev           0.052607                       # Request fanout histogram
system.tol2bus.snoop_fanout::underflows             0      0.00%      0.00% # Request fanout histogram
system.tol2bus.snoop_fanout::0               57970833     99.73%     99.73% # Request fanout histogram
system.tol2bus.snoop_fanout::1                 153652      0.26%    100.00% # Request fanout histogram
system.tol2bus.snoop_fanout::2                   1910      0.00%    100.00% # Request fanout histogram
system.tol2bus.snoop_fanout::3                      0      0.00%    100.00% # Request fanout histogram
system.tol2bus.snoop_fanout::4                      0      0.00%    100.00% # Request fanout histogram
system.tol2bus.snoop_fanout::overflows              0      0.00%    100.00% # Request fanout histogram
system.tol2bus.snoop_fanout::min_value              0                       # Request fanout histogram
system.tol2bus.snoop_fanout::max_value              2                       # Request fanout histogram
system.tol2bus.snoop_fanout::total           58126395                       # Request fanout histogram
system.tol2bus.reqLayer0.occupancy       101423338178                       # Layer occupancy (ticks)
system.tol2bus.reqLayer0.utilization             10.6                       # Layer utilization (%)
system.tol2bus.respLayer1.occupancy       23737588024                       # Layer occupancy (ticks)
system.tol2bus.respLayer1.utilization             2.5                       # Layer utilization (%)
system.tol2bus.respLayer0.occupancy       59134213235                       # Layer occupancy (ticks)
system.tol2bus.respLayer0.utilization             6.2                       # Layer utilization (%)
system.voltage_domain.voltage                       1                       # Voltage in Volts
system.clk_domain.clock                          1000                       # Clock period in ticks
system.l2.pwrStateResidencyTicks::UNDEFINED 2124956256500                       # Cumulative time (in ticks) in various power states
system.l2.demand_hits::.switch_cpus.inst     38535976                       # number of demand (read+write) hits
system.l2.demand_hits::.switch_cpus.data     14444686                       # number of demand (read+write) hits
system.l2.demand_hits::total                 52980662                       # number of demand (read+write) hits
system.l2.overall_hits::.switch_cpus.inst     38535976                       # number of overall hits
system.l2.overall_hits::.switch_cpus.data     14444686                       # number of overall hits
system.l2.overall_hits::total                52980662                       # number of overall hits
system.l2.demand_misses::.switch_cpus.inst       880707                       # number of demand (read+write) misses
system.l2.demand_misses::.switch_cpus.data      1377710                       # number of demand (read+write) misses
system.l2.demand_misses::total                2258417                       # number of demand (read+write) misses
system.l2.overall_misses::.switch_cpus.inst       880707                       # number of overall misses
system.l2.overall_misses::.switch_cpus.data      1377710                       # number of overall misses
system.l2.overall_misses::total               2258417                       # number of overall misses
system.l2.demand_miss_latency::.switch_cpus.inst  72522835175                       # number of demand (read+write) miss cycles
system.l2.demand_miss_latency::.switch_cpus.data 114811318000                       # number of demand (read+write) miss cycles
system.l2.demand_miss_latency::total     187334153175                       # number of demand (read+write) miss cycles
system.l2.overall_miss_latency::.switch_cpus.inst  72522835175                       # number of overall miss cycles
system.l2.overall_miss_latency::.switch_cpus.data 114811318000                       # number of overall miss cycles
system.l2.overall_miss_latency::total    187334153175                       # number of overall miss cycles
system.l2.demand_accesses::.switch_cpus.inst     39416683                       # number of demand (read+write) accesses
system.l2.demand_accesses::.switch_cpus.data     15822396                       # number of demand (read+write) accesses
system.l2.demand_accesses::total             55239079                       # number of demand (read+write) accesses
system.l2.overall_accesses::.switch_cpus.inst     39416683                       # number of overall (read+write) accesses
system.l2.overall_accesses::.switch_cpus.data     15822396                       # number of overall (read+write) accesses
system.l2.overall_accesses::total            55239079                       # number of overall (read+write) accesses
system.l2.demand_miss_rate::.switch_cpus.inst     0.022344                       # miss rate for demand accesses
system.l2.demand_miss_rate::.switch_cpus.data     0.087073                       # miss rate for demand accesses
system.l2.demand_miss_rate::total            0.040884                       # miss rate for demand accesses
system.l2.overall_miss_rate::.switch_cpus.inst     0.022344                       # miss rate for overall accesses
system.l2.overall_miss_rate::.switch_cpus.data     0.087073                       # miss rate for overall accesses
system.l2.overall_miss_rate::total           0.040884                       # miss rate for overall accesses
system.l2.demand_avg_miss_latency::.switch_cpus.inst 82346.155049                       # average overall miss latency
system.l2.demand_avg_miss_latency::.switch_cpus.data 83334.894862                       # average overall miss latency
system.l2.demand_avg_miss_latency::total 82949.319446                       # average overall miss latency
system.l2.overall_avg_miss_latency::.switch_cpus.inst 82346.155049                       # average overall miss latency
system.l2.overall_avg_miss_latency::.switch_cpus.data 83334.894862                       # average overall miss latency
system.l2.overall_avg_miss_latency::total 82949.319446                       # average overall miss latency
system.l2.blocked_cycles::no_mshrs          329447173                       # number of cycles access was blocked
system.l2.blocked_cycles::no_targets                0                       # number of cycles access was blocked
system.l2.blocked::no_mshrs                   2260356                       # number of cycles access was blocked
system.l2.blocked::no_targets                       0                       # number of cycles access was blocked
system.l2.avg_blocked_cycles::no_mshrs     145.750127                       # average number of cycles each access was blocked
system.l2.avg_blocked_cycles::no_targets          nan                       # average number of cycles each access was blocked
system.l2.writebacks::.writebacks              411589                       # number of writebacks
system.l2.writebacks::total                    411589                       # number of writebacks
system.l2.demand_mshr_misses::.switch_cpus.inst       880707                       # number of demand (read+write) MSHR misses
system.l2.demand_mshr_misses::.switch_cpus.data      1377710                       # number of demand (read+write) MSHR misses
system.l2.demand_mshr_misses::total           2258417                       # number of demand (read+write) MSHR misses
system.l2.overall_mshr_misses::.switch_cpus.inst       880707                       # number of overall MSHR misses
system.l2.overall_mshr_misses::.switch_cpus.data      1377710                       # number of overall MSHR misses
system.l2.overall_mshr_misses::total          2258417                       # number of overall MSHR misses
system.l2.demand_mshr_miss_latency::.switch_cpus.inst  63715765175                       # number of demand (read+write) MSHR miss cycles
system.l2.demand_mshr_miss_latency::.switch_cpus.data 101034218000                       # number of demand (read+write) MSHR miss cycles
system.l2.demand_mshr_miss_latency::total 164749983175                       # number of demand (read+write) MSHR miss cycles
system.l2.overall_mshr_miss_latency::.switch_cpus.inst  63715765175                       # number of overall MSHR miss cycles
system.l2.overall_mshr_miss_latency::.switch_cpus.data 101034218000                       # number of overall MSHR miss cycles
system.l2.overall_mshr_miss_latency::total 164749983175                       # number of overall MSHR miss cycles
system.l2.demand_mshr_miss_rate::.switch_cpus.inst     0.022344                       # mshr miss rate for demand accesses
system.l2.demand_mshr_miss_rate::.switch_cpus.data     0.087073                       # mshr miss rate for demand accesses
system.l2.demand_mshr_miss_rate::total       0.040884                       # mshr miss rate for demand accesses
system.l2.overall_mshr_miss_rate::.switch_cpus.inst     0.022344                       # mshr miss rate for overall accesses
system.l2.overall_mshr_miss_rate::.switch_cpus.data     0.087073                       # mshr miss rate for overall accesses
system.l2.overall_mshr_miss_rate::total      0.040884                       # mshr miss rate for overall accesses
system.l2.demand_avg_mshr_miss_latency::.switch_cpus.inst 72346.155049                       # average overall mshr miss latency
system.l2.demand_avg_mshr_miss_latency::.switch_cpus.data 73334.894862                       # average overall mshr miss latency
system.l2.demand_avg_mshr_miss_latency::total 72949.319446                       # average overall mshr miss latency
system.l2.overall_avg_mshr_miss_latency::.switch_cpus.inst 72346.155049                       # average overall mshr miss latency
system.l2.overall_avg_mshr_miss_latency::.switch_cpus.data 73334.894862                       # average overall mshr miss latency
system.l2.overall_avg_mshr_miss_latency::total 72949.319446                       # average overall mshr miss latency
system.l2.replacements                        2329935                       # number of replacements
system.l2.WritebackDirty_hits::.writebacks      5378646                       # number of WritebackDirty hits
system.l2.WritebackDirty_hits::total          5378646                       # number of WritebackDirty hits
system.l2.WritebackDirty_accesses::.writebacks      5378646                       # number of WritebackDirty accesses(hits+misses)
system.l2.WritebackDirty_accesses::total      5378646                       # number of WritebackDirty accesses(hits+misses)
system.l2.WritebackClean_hits::.writebacks     39414236                       # number of WritebackClean hits
system.l2.WritebackClean_hits::total         39414236                       # number of WritebackClean hits
system.l2.WritebackClean_accesses::.writebacks     39414236                       # number of WritebackClean accesses(hits+misses)
system.l2.WritebackClean_accesses::total     39414236                       # number of WritebackClean accesses(hits+misses)
system.l2.CleanEvict_mshr_misses::.writebacks        64345                       # number of CleanEvict MSHR misses
system.l2.CleanEvict_mshr_misses::total         64345                       # number of CleanEvict MSHR misses
system.l2.CleanEvict_mshr_miss_rate::.writebacks          inf                       # mshr miss rate for CleanEvict accesses
system.l2.CleanEvict_mshr_miss_rate::total          inf                       # mshr miss rate for CleanEvict accesses
system.l2.UpgradeReq_hits::.switch_cpus.data          587                       # number of UpgradeReq hits
system.l2.UpgradeReq_hits::total                  587                       # number of UpgradeReq hits
system.l2.UpgradeReq_misses::.switch_cpus.data         1939                       # number of UpgradeReq misses
system.l2.UpgradeReq_misses::total               1939                       # number of UpgradeReq misses
system.l2.UpgradeReq_accesses::.switch_cpus.data         2526                       # number of UpgradeReq accesses(hits+misses)
system.l2.UpgradeReq_accesses::total             2526                       # number of UpgradeReq accesses(hits+misses)
system.l2.UpgradeReq_miss_rate::.switch_cpus.data     0.767617                       # miss rate for UpgradeReq accesses
system.l2.UpgradeReq_miss_rate::total        0.767617                       # miss rate for UpgradeReq accesses
system.l2.UpgradeReq_mshr_misses::.switch_cpus.data         1939                       # number of UpgradeReq MSHR misses
system.l2.UpgradeReq_mshr_misses::total          1939                       # number of UpgradeReq MSHR misses
system.l2.UpgradeReq_mshr_miss_latency::.switch_cpus.data     38884500                       # number of UpgradeReq MSHR miss cycles
system.l2.UpgradeReq_mshr_miss_latency::total     38884500                       # number of UpgradeReq MSHR miss cycles
system.l2.UpgradeReq_mshr_miss_rate::.switch_cpus.data     0.767617                       # mshr miss rate for UpgradeReq accesses
system.l2.UpgradeReq_mshr_miss_rate::total     0.767617                       # mshr miss rate for UpgradeReq accesses
system.l2.UpgradeReq_avg_mshr_miss_latency::.switch_cpus.data 20053.893760                       # average UpgradeReq mshr miss latency
system.l2.UpgradeReq_avg_mshr_miss_latency::total 20053.893760                       # average UpgradeReq mshr miss latency
system.l2.ReadExReq_hits::.switch_cpus.data      1856728                       # number of ReadExReq hits
system.l2.ReadExReq_hits::total               1856728                       # number of ReadExReq hits
system.l2.ReadExReq_misses::.switch_cpus.data       187905                       # number of ReadExReq misses
system.l2.ReadExReq_misses::total              187905                       # number of ReadExReq misses
system.l2.ReadExReq_miss_latency::.switch_cpus.data  14908154356                       # number of ReadExReq miss cycles
system.l2.ReadExReq_miss_latency::total   14908154356                       # number of ReadExReq miss cycles
system.l2.ReadExReq_accesses::.switch_cpus.data      2044633                       # number of ReadExReq accesses(hits+misses)
system.l2.ReadExReq_accesses::total           2044633                       # number of ReadExReq accesses(hits+misses)
system.l2.ReadExReq_miss_rate::.switch_cpus.data     0.091902                       # miss rate for ReadExReq accesses
system.l2.ReadExReq_miss_rate::total         0.091902                       # miss rate for ReadExReq accesses
system.l2.ReadExReq_avg_miss_latency::.switch_cpus.data 79338.784790                       # average ReadExReq miss latency
system.l2.ReadExReq_avg_miss_latency::total 79338.784790                       # average ReadExReq miss latency
system.l2.ReadExReq_mshr_misses::.switch_cpus.data       187905                       # number of ReadExReq MSHR misses
system.l2.ReadExReq_mshr_misses::total         187905                       # number of ReadExReq MSHR misses
system.l2.ReadExReq_mshr_miss_latency::.switch_cpus.data  13029104356                       # number of ReadExReq MSHR miss cycles
system.l2.ReadExReq_mshr_miss_latency::total  13029104356                       # number of ReadExReq MSHR miss cycles
system.l2.ReadExReq_mshr_miss_rate::.switch_cpus.data     0.091902                       # mshr miss rate for ReadExReq accesses
system.l2.ReadExReq_mshr_miss_rate::total     0.091902                       # mshr miss rate for ReadExReq accesses
system.l2.ReadExReq_avg_mshr_miss_latency::.switch_cpus.data 69338.784790                       # average ReadExReq mshr miss latency
system.l2.ReadExReq_avg_mshr_miss_latency::total 69338.784790                       # average ReadExReq mshr miss latency
system.l2.ReadCleanReq_hits::.switch_cpus.inst     38535976                       # number of ReadCleanReq hits
system.l2.ReadCleanReq_hits::total           38535976                       # number of ReadCleanReq hits
system.l2.ReadCleanReq_misses::.switch_cpus.inst       880707                       # number of ReadCleanReq misses
system.l2.ReadCleanReq_misses::total           880707                       # number of ReadCleanReq misses
system.l2.ReadCleanReq_miss_latency::.switch_cpus.inst  72522835175                       # number of ReadCleanReq miss cycles
system.l2.ReadCleanReq_miss_latency::total  72522835175                       # number of ReadCleanReq miss cycles
system.l2.ReadCleanReq_accesses::.switch_cpus.inst     39416683                       # number of ReadCleanReq accesses(hits+misses)
[...]
system.cpu.itb_walker_cache.tags.warmup_cycle            0                       # Cycle when the warmup percentage was hit.
system.cpu.itb_walker_cache.tags.tag_accesses            0                       # Number of tag accesses
system.cpu.itb_walker_cache.tags.data_accesses            0                       # Number of data accesses
system.cpu.itb.walker.pwrStateResidencyTicks::UNDEFINED 2124956256500                       # Cumulative time (in ticks) in various power states
system.cpu.dtb_walker_cache.pwrStateResidencyTicks::UNDEFINED 2124956256500                       # Cumulative time (in ticks) in various power states
system.cpu.dtb_walker_cache.blocked_cycles::no_mshrs            0                       # number of cycles access was blocked
system.cpu.dtb_walker_cache.blocked_cycles::no_targets            0                       # number of cycles access was blocked
system.cpu.dtb_walker_cache.blocked::no_mshrs            0                       # number of cycles access was blocked
system.cpu.dtb_walker_cache.blocked::no_targets            0                       # number of cycles access was blocked
system.cpu.dtb_walker_cache.avg_blocked_cycles::no_mshrs          nan                       # average number of cycles each access was blocked
system.cpu.dtb_walker_cache.avg_blocked_cycles::no_targets          nan                       # average number of cycles each access was blocked
system.cpu.dtb_walker_cache.replacements            0                       # number of replacements
system.cpu.dtb_walker_cache.tags.pwrStateResidencyTicks::UNDEFINED 2124956256500                       # Cumulative time (in ticks) in various power states
system.cpu.dtb_walker_cache.tags.tagsinuse            0                       # Cycle average of tags in use
system.cpu.dtb_walker_cache.tags.total_refs            0                       # Total number of references to valid blocks.
system.cpu.dtb_walker_cache.tags.sampled_refs            0                       # Sample count of references to valid blocks.
system.cpu.dtb_walker_cache.tags.avg_refs          nan                       # Average number of references to valid blocks.
system.cpu.dtb_walker_cache.tags.warmup_cycle            0                       # Cycle when the warmup percentage was hit.
system.cpu.dtb_walker_cache.tags.tag_accesses            0                       # Number of tag accesses
system.cpu.dtb_walker_cache.tags.data_accesses            0                       # Number of data accesses
system.cpu.dcache.pwrStateResidencyTicks::UNDEFINED 2124956256500                       # Cumulative time (in ticks) in various power states
system.cpu.dcache.demand_hits::.cpu.data    404016205                       # number of demand (read+write) hits
system.cpu.dcache.demand_hits::.switch_cpus.data    292490058                       # number of demand (read+write) hits
system.cpu.dcache.demand_hits::total        696506263                       # number of demand (read+write) hits
system.cpu.dcache.overall_hits::.cpu.data    404158430                       # number of overall hits
system.cpu.dcache.overall_hits::.switch_cpus.data    292979746                       # number of overall hits
system.cpu.dcache.overall_hits::total       697138176                       # number of overall hits
system.cpu.dcache.demand_misses::.cpu.data     17636530                       # number of demand (read+write) misses
system.cpu.dcache.demand_misses::.switch_cpus.data     15794925                       # number of demand (read+write) misses
system.cpu.dcache.demand_misses::total       33431455                       # number of demand (read+write) misses
system.cpu.dcache.overall_misses::.cpu.data     17703961                       # number of overall misses
system.cpu.dcache.overall_misses::.switch_cpus.data     15824922                       # number of overall misses
system.cpu.dcache.overall_misses::total      33528883                       # number of overall misses
system.cpu.dcache.demand_miss_latency::.switch_cpus.data 321838851363                       # number of demand (read+write) miss cycles
system.cpu.dcache.demand_miss_latency::total 321838851363                       # number of demand (read+write) miss cycles
system.cpu.dcache.overall_miss_latency::.switch_cpus.data 321838851363                       # number of overall miss cycles
system.cpu.dcache.overall_miss_latency::total 321838851363                       # number of overall miss cycles
system.cpu.dcache.demand_accesses::.cpu.data    421652735                       # number of demand (read+write) accesses
system.cpu.dcache.demand_accesses::.switch_cpus.data    308284983                       # number of demand (read+write) accesses
system.cpu.dcache.demand_accesses::total    729937718                       # number of demand (read+write) accesses
system.cpu.dcache.overall_accesses::.cpu.data    421862391                       # number of overall (read+write) accesses
system.cpu.dcache.overall_accesses::.switch_cpus.data    308804668                       # number of overall (read+write) accesses
system.cpu.dcache.overall_accesses::total    730667059                       # number of overall (read+write) accesses
system.cpu.dcache.demand_miss_rate::.cpu.data     0.041827                       # miss rate for demand accesses
system.cpu.dcache.demand_miss_rate::.switch_cpus.data     0.051235                       # miss rate for demand accesses
system.cpu.dcache.demand_miss_rate::total     0.045800                       # miss rate for demand accesses
system.cpu.dcache.overall_miss_rate::.cpu.data     0.041966                       # miss rate for overall accesses
system.cpu.dcache.overall_miss_rate::.switch_cpus.data     0.051246                       # miss rate for overall accesses
system.cpu.dcache.overall_miss_rate::total     0.045888                       # miss rate for overall accesses
system.cpu.dcache.demand_avg_miss_latency::.switch_cpus.data 20376.092407                       # average overall miss latency
system.cpu.dcache.demand_avg_miss_latency::total  9626.827530                       # average overall miss latency
system.cpu.dcache.overall_avg_miss_latency::.switch_cpus.data 20337.468416                       # average overall miss latency
system.cpu.dcache.overall_avg_miss_latency::total  9598.853960                       # average overall miss latency
system.cpu.dcache.blocked_cycles::no_mshrs    613470663                       # number of cycles access was blocked
system.cpu.dcache.blocked_cycles::no_targets            0                       # number of cycles access was blocked
system.cpu.dcache.blocked::no_mshrs          15824922                       # number of cycles access was blocked
system.cpu.dcache.blocked::no_targets               0                       # number of cycles access was blocked
system.cpu.dcache.avg_blocked_cycles::no_mshrs    38.766110                       # average number of cycles each access was blocked
system.cpu.dcache.avg_blocked_cycles::no_targets          nan                       # average number of cycles each access was blocked
system.cpu.dcache.writebacks::.writebacks     12967999                       # number of writebacks
system.cpu.dcache.writebacks::total          12967999                       # number of writebacks
system.cpu.dcache.demand_mshr_misses::.switch_cpus.data     15794925                       # number of demand (read+write) MSHR misses
system.cpu.dcache.demand_mshr_misses::total     15794925                       # number of demand (read+write) MSHR misses
system.cpu.dcache.overall_mshr_misses::.switch_cpus.data     15824922                       # number of overall MSHR misses
system.cpu.dcache.overall_mshr_misses::total     15824922                       # number of overall MSHR misses
system.cpu.dcache.demand_mshr_miss_latency::.switch_cpus.data 306043927363                       # number of demand (read+write) MSHR miss cycles
system.cpu.dcache.demand_mshr_miss_latency::total 306043927363                       # number of demand (read+write) MSHR miss cycles
system.cpu.dcache.overall_mshr_miss_latency::.switch_cpus.data 306880607863                       # number of overall MSHR miss cycles
system.cpu.dcache.overall_mshr_miss_latency::total 306880607863                       # number of overall MSHR miss cycles
system.cpu.dcache.demand_mshr_miss_rate::.switch_cpus.data     0.051235                       # mshr miss rate for demand accesses
system.cpu.dcache.demand_mshr_miss_rate::total     0.021639                       # mshr miss rate for demand accesses
system.cpu.dcache.overall_mshr_miss_rate::.switch_cpus.data     0.051246                       # mshr miss rate for overall accesses
system.cpu.dcache.overall_mshr_miss_rate::total     0.021658                       # mshr miss rate for overall accesses
system.cpu.dcache.demand_avg_mshr_miss_latency::.switch_cpus.data 19376.092470                       # average overall mshr miss latency
system.cpu.dcache.demand_avg_mshr_miss_latency::total 19376.092470                       # average overall mshr miss latency
system.cpu.dcache.overall_avg_mshr_miss_latency::.switch_cpus.data 19392.235100                       # average overall mshr miss latency
system.cpu.dcache.overall_avg_mshr_miss_latency::total 19392.235100                       # average overall mshr miss latency
system.cpu.dcache.replacements               33526100                       # number of replacements
system.cpu.dcache.ReadReq_hits::.cpu.data    254144398                       # number of ReadReq hits
system.cpu.dcache.ReadReq_hits::.switch_cpus.data    203668726                       # number of ReadReq hits
system.cpu.dcache.ReadReq_hits::total       457813124                       # number of ReadReq hits
system.cpu.dcache.ReadReq_misses::.cpu.data     14765198                       # number of ReadReq misses
system.cpu.dcache.ReadReq_misses::.switch_cpus.data     13747766                       # number of ReadReq misses
system.cpu.dcache.ReadReq_misses::total      28512964                       # number of ReadReq misses
system.cpu.dcache.ReadReq_miss_latency::.switch_cpus.data 279493854500                       # number of ReadReq miss cycles
system.cpu.dcache.ReadReq_miss_latency::total 279493854500                       # number of ReadReq miss cycles
system.cpu.dcache.ReadReq_accesses::.cpu.data    268909596                       # number of ReadReq accesses(hits+misses)
system.cpu.dcache.ReadReq_accesses::.switch_cpus.data    217416492                       # number of ReadReq accesses(hits+misses)
system.cpu.dcache.ReadReq_accesses::total    486326088                       # number of ReadReq accesses(hits+misses)
system.cpu.dcache.ReadReq_miss_rate::.cpu.data     0.054908                       # miss rate for ReadReq accesses
system.cpu.dcache.ReadReq_miss_rate::.switch_cpus.data     0.063232                       # miss rate for ReadReq accesses
system.cpu.dcache.ReadReq_miss_rate::total     0.058629                       # miss rate for ReadReq accesses
system.cpu.dcache.ReadReq_avg_miss_latency::.switch_cpus.data 20330.128873                       # average ReadReq miss latency
system.cpu.dcache.ReadReq_avg_miss_latency::total  9802.343050                       # average ReadReq miss latency
system.cpu.dcache.ReadReq_mshr_misses::.switch_cpus.data     13747766                       # number of ReadReq MSHR misses
system.cpu.dcache.ReadReq_mshr_misses::total     13747766                       # number of ReadReq MSHR misses
system.cpu.dcache.ReadReq_mshr_miss_latency::.switch_cpus.data 265746089500                       # number of ReadReq MSHR miss cycles
system.cpu.dcache.ReadReq_mshr_miss_latency::total 265746089500                       # number of ReadReq MSHR miss cycles
system.cpu.dcache.ReadReq_mshr_miss_rate::.switch_cpus.data     0.063232                       # mshr miss rate for ReadReq accesses
system.cpu.dcache.ReadReq_mshr_miss_rate::total     0.028269                       # mshr miss rate for ReadReq accesses
system.cpu.dcache.ReadReq_avg_mshr_miss_latency::.switch_cpus.data 19330.128946                       # average ReadReq mshr miss latency
system.cpu.dcache.ReadReq_avg_mshr_miss_latency::total 19330.128946                       # average ReadReq mshr miss latency
system.cpu.dcache.WriteReq_hits::.cpu.data    149871807                       # number of WriteReq hits
system.cpu.dcache.WriteReq_hits::.switch_cpus.data     88821332                       # number of WriteReq hits
system.cpu.dcache.WriteReq_hits::total      238693139                       # number of WriteReq hits
system.cpu.dcache.WriteReq_misses::.cpu.data      2871332                       # number of WriteReq misses
system.cpu.dcache.WriteReq_misses::.switch_cpus.data      2047159                       # number of WriteReq misses
system.cpu.dcache.WriteReq_misses::total      4918491                       # number of WriteReq misses
system.cpu.dcache.WriteReq_miss_latency::.switch_cpus.data  42344996863                       # number of WriteReq miss cycles
system.cpu.dcache.WriteReq_miss_latency::total  42344996863                       # number of WriteReq miss cycles
system.cpu.dcache.WriteReq_accesses::.cpu.data    152743139                       # number of WriteReq accesses(hits+misses)
system.cpu.dcache.WriteReq_accesses::.switch_cpus.data     90868491                       # number of WriteReq accesses(hits+misses)
system.cpu.dcache.WriteReq_accesses::total    243611630                       # number of WriteReq accesses(hits+misses)
system.cpu.dcache.WriteReq_miss_rate::.cpu.data     0.018798                       # miss rate for WriteReq accesses
system.cpu.dcache.WriteReq_miss_rate::.switch_cpus.data     0.022529                       # miss rate for WriteReq accesses
system.cpu.dcache.WriteReq_miss_rate::total     0.020190                       # miss rate for WriteReq accesses
system.cpu.dcache.WriteReq_avg_miss_latency::.switch_cpus.data 20684.762084                       # average WriteReq miss latency
system.cpu.dcache.WriteReq_avg_miss_latency::total  8609.347229                       # average WriteReq miss latency
system.cpu.dcache.WriteReq_mshr_misses::.switch_cpus.data      2047159                       # number of WriteReq MSHR misses
system.cpu.dcache.WriteReq_mshr_misses::total      2047159                       # number of WriteReq MSHR misses
system.cpu.dcache.WriteReq_mshr_miss_latency::.switch_cpus.data  40297837863                       # number of WriteReq MSHR miss cycles
system.cpu.dcache.WriteReq_mshr_miss_latency::total  40297837863                       # number of WriteReq MSHR miss cycles
system.cpu.dcache.WriteReq_mshr_miss_rate::.switch_cpus.data     0.022529                       # mshr miss rate for WriteReq accesses
system.cpu.dcache.WriteReq_mshr_miss_rate::total     0.008403                       # mshr miss rate for WriteReq accesses
system.cpu.dcache.WriteReq_avg_mshr_miss_latency::.switch_cpus.data 19684.762084                       # average WriteReq mshr miss latency
system.cpu.dcache.WriteReq_avg_mshr_miss_latency::total 19684.762084                       # average WriteReq mshr miss latency
system.cpu.dcache.SoftPFReq_hits::.cpu.data       142225                       # number of SoftPFReq hits
system.cpu.dcache.SoftPFReq_hits::.switch_cpus.data       489688                       # number of SoftPFReq hits
system.cpu.dcache.SoftPFReq_hits::total        631913                       # number of SoftPFReq hits
system.cpu.dcache.SoftPFReq_misses::.cpu.data        67431                       # number of SoftPFReq misses
system.cpu.dcache.SoftPFReq_misses::.switch_cpus.data        29997                       # number of SoftPFReq misses
system.cpu.dcache.SoftPFReq_misses::total        97428                       # number of SoftPFReq misses
system.cpu.dcache.SoftPFReq_accesses::.cpu.data       209656                       # number of SoftPFReq accesses(hits+misses)
system.cpu.dcache.SoftPFReq_accesses::.switch_cpus.data       519685                       # number of SoftPFReq accesses(hits+misses)
system.cpu.dcache.SoftPFReq_accesses::total       729341                       # number of SoftPFReq accesses(hits+misses)
system.cpu.dcache.SoftPFReq_miss_rate::.cpu.data     0.321627                       # miss rate for SoftPFReq accesses
system.cpu.dcache.SoftPFReq_miss_rate::.switch_cpus.data     0.057722                       # miss rate for SoftPFReq accesses
system.cpu.dcache.SoftPFReq_miss_rate::total     0.133584                       # miss rate for SoftPFReq accesses
system.cpu.dcache.SoftPFReq_mshr_misses::.switch_cpus.data        29997                       # number of SoftPFReq MSHR misses
system.cpu.dcache.SoftPFReq_mshr_misses::total        29997                       # number of SoftPFReq MSHR misses
system.cpu.dcache.SoftPFReq_mshr_miss_latency::.switch_cpus.data    836680500                       # number of SoftPFReq MSHR miss cycles
system.cpu.dcache.SoftPFReq_mshr_miss_latency::total    836680500                       # number of SoftPFReq MSHR miss cycles
system.cpu.dcache.SoftPFReq_mshr_miss_rate::.switch_cpus.data     0.057722                       # mshr miss rate for SoftPFReq accesses
system.cpu.dcache.SoftPFReq_mshr_miss_rate::total     0.041129                       # mshr miss rate for SoftPFReq accesses
system.cpu.dcache.SoftPFReq_avg_mshr_miss_latency::.switch_cpus.data 27892.139214                       # average SoftPFReq mshr miss latency
system.cpu.dcache.SoftPFReq_avg_mshr_miss_latency::total 27892.139214                       # average SoftPFReq mshr miss latency
system.cpu.dcache.tags.pwrStateResidencyTicks::UNDEFINED 2124956256500                       # Cumulative time (in ticks) in various power states
system.cpu.dcache.tags.tagsinuse           255.999496                       # Cycle average of tags in use
system.cpu.dcache.tags.total_refs           730539018                       # Total number of references to valid blocks.
system.cpu.dcache.tags.sampled_refs          33526100                       # Sample count of references to valid blocks.
system.cpu.dcache.tags.avg_refs             21.790158                       # Average number of references to valid blocks.
system.cpu.dcache.tags.warmup_cycle              1000                       # Cycle when the warmup percentage was hit.
system.cpu.dcache.tags.occ_blocks::.cpu.data   140.301825                       # Average occupied blocks per requestor
system.cpu.dcache.tags.occ_blocks::.switch_cpus.data   115.697672                       # Average occupied blocks per requestor
system.cpu.dcache.tags.occ_percent::.cpu.data     0.548054                       # Average percentage of cache occupancy
system.cpu.dcache.tags.occ_percent::.switch_cpus.data     0.451944                       # Average percentage of cache occupancy
system.cpu.dcache.tags.occ_percent::total     0.999998                       # Average percentage of cache occupancy
system.cpu.dcache.tags.occ_task_id_blocks::1024          256                       # Occupied blocks per task id
system.cpu.dcache.tags.age_task_id_blocks_1024::0          110                       # Occupied blocks per task id
system.cpu.dcache.tags.age_task_id_blocks_1024::1           46                       # Occupied blocks per task id
system.cpu.dcache.tags.age_task_id_blocks_1024::2           94                       # Occupied blocks per task id
system.cpu.dcache.tags.age_task_id_blocks_1024::3            6                       # Occupied blocks per task id
system.cpu.dcache.tags.occ_task_id_percent::1024            1                       # Percentage of cache occupancy per task id
system.cpu.dcache.tags.tag_accesses        1494860474                       # Number of tag accesses
system.cpu.dcache.tags.data_accesses       1494860474                       # Number of data accesses

---------- End Simulation Statistics   ----------
