
---------- Begin Simulation Statistics ----------
final_tick                                75035564500                       # Number of ticks from beginning of simulation (restored from checkpoints and never reset)
host_inst_rate                                 312919                       # Simulator instruction rate (inst/s)
host_mem_usage                                4409624                       # Number of bytes of host memory used
host_op_rate                                   341654                       # Simulator op (including micro ops) rate (op/s)
host_seconds                                   639.14                       # Real time elapsed on the host
host_tick_rate                              117400420                       # Simulator tick rate (ticks/s)
sim_freq                                 1000000000000                       # Frequency of simulated ticks
sim_insts                                   200000000                       # Number of instructions simulated
sim_ops                                     218365224                       # Number of ops (including micro ops) simulated
sim_seconds                                  0.075036                       # Number of seconds simulated
sim_ticks                                 75035564500                       # Number of ticks simulated
system.cpu.branchPred.BTBCorrect                    0                       # Number of correct BTB predictions (this stat may not work properly.
system.cpu.branchPred.BTBHitPct             99.205911                       # BTB Hit Percentage
system.cpu.branchPred.BTBHits                19732401                       # Number of BTB hits
system.cpu.branchPred.BTBLookups             19890348                       # Number of BTB lookups
system.cpu.branchPred.RASInCorrect             259810                       # Number of incorrect RAS predictions.
system.cpu.branchPred.condIncorrect            770763                       # Number of conditional branches incorrect
system.cpu.branchPred.condPredicted          36337331                       # Number of conditional branches predicted
system.cpu.branchPred.indirectHits            1532614                       # Number of indirect target hits.
system.cpu.branchPred.indirectLookups         1610985                       # Number of indirect predictor lookups.
system.cpu.branchPred.indirectMisses            78371                       # Number of indirect misses.
system.cpu.branchPred.lookups                48104101                       # Number of BP lookups
system.cpu.branchPred.usedRAS                 3562685                       # Number of times the RAS was used to get a target.
system.cpu.branchPredindirectMispredicted         3071                       # Number of mispredicted indirect branches.
system.cpu.cc_regfile_reads                 809089966                       # number of cc regfile reads
system.cpu.cc_regfile_writes                115480200                       # number of cc regfile writes
system.cpu.commit.amos                              0                       # Number of atomic instructions committed
system.cpu.commit.branchMispredicts            614629                       # The number of times a branch was mispredicted
system.cpu.commit.branches                   44387066                       # Number of branches committed
system.cpu.commit.bw_lim_events               9751026                       # number cycles where commit BW limit reached
system.cpu.commit.commitNonSpecStalls          336897                       # The number of times commit has been forced to stall to communicate backwards
system.cpu.commit.commitSquashedInsts         8857102                       # The number of squashed insts skipped by commit
system.cpu.commit.committedInsts            200000001                       # Number of instructions committed
system.cpu.commit.committedOps              218365225                       # Number of ops (including micro ops) committed
system.cpu.commit.committed_per_cycle::samples    145189667                       # Number of insts commited each cycle
system.cpu.commit.committed_per_cycle::mean     1.504000                       # Number of insts commited each cycle
system.cpu.commit.committed_per_cycle::stdev     2.370759                       # Number of insts commited each cycle
system.cpu.commit.committed_per_cycle::underflows            0      0.00%      0.00% # Number of insts commited each cycle
system.cpu.commit.committed_per_cycle::0     76801767     52.90%     52.90% # Number of insts commited each cycle
system.cpu.commit.committed_per_cycle::1     28310047     19.50%     72.40% # Number of insts commited each cycle
system.cpu.commit.committed_per_cycle::2      9803865      6.75%     79.15% # Number of insts commited each cycle
system.cpu.commit.committed_per_cycle::3      6334467      4.36%     83.51% # Number of insts commited each cycle
system.cpu.commit.committed_per_cycle::4      5030804      3.46%     86.98% # Number of insts commited each cycle
system.cpu.commit.committed_per_cycle::5      3462034      2.38%     89.36% # Number of insts commited each cycle
system.cpu.commit.committed_per_cycle::6      3867147      2.66%     92.02% # Number of insts commited each cycle
system.cpu.commit.committed_per_cycle::7      1828510      1.26%     93.28% # Number of insts commited each cycle
system.cpu.commit.committed_per_cycle::8      9751026      6.72%    100.00% # Number of insts commited each cycle
system.cpu.commit.committed_per_cycle::overflows            0      0.00%    100.00% # Number of insts commited each cycle
system.cpu.commit.committed_per_cycle::min_value            0                       # Number of insts commited each cycle
system.cpu.commit.committed_per_cycle::max_value            8                       # Number of insts commited each cycle
system.cpu.commit.committed_per_cycle::total    145189667                       # Number of insts commited each cycle
system.cpu.commit.fp_insts                          0                       # Number of committed floating point instructions.
system.cpu.commit.function_calls              2854786                       # Number of function calls committed.
system.cpu.commit.int_insts                 181450715                       # Number of committed integer instructions.
system.cpu.commit.loads                      44251403                       # Number of loads committed
system.cpu.commit.membars                      168362                       # Number of memory barriers committed
system.cpu.commit.op_class_0::No_OpClass            0      0.00%      0.00% # Class of committed instruction
system.cpu.commit.op_class_0::IntAlu        141941368     65.00%     65.00% # Class of committed instruction
system.cpu.commit.op_class_0::IntMult         1015349      0.46%     65.47% # Class of committed instruction
system.cpu.commit.op_class_0::IntDiv                0      0.00%     65.47% # Class of committed instruction
system.cpu.commit.op_class_0::FloatAdd              0      0.00%     65.47% # Class of committed instruction
system.cpu.commit.op_class_0::FloatCmp              0      0.00%     65.47% # Class of committed instruction
system.cpu.commit.op_class_0::FloatCvt              0      0.00%     65.47% # Class of committed instruction
system.cpu.commit.op_class_0::FloatMult             0      0.00%     65.47% # Class of committed instruction
system.cpu.commit.op_class_0::FloatMultAcc            0      0.00%     65.47% # Class of committed instruction
system.cpu.commit.op_class_0::FloatDiv              0      0.00%     65.47% # Class of committed instruction
system.cpu.commit.op_class_0::FloatMisc             0      0.00%     65.47% # Class of committed instruction
system.cpu.commit.op_class_0::FloatSqrt             0      0.00%     65.47% # Class of committed instruction
system.cpu.commit.op_class_0::SimdAdd               0      0.00%     65.47% # Class of committed instruction
system.cpu.commit.op_class_0::SimdAddAcc            0      0.00%     65.47% # Class of committed instruction
system.cpu.commit.op_class_0::SimdAlu               0      0.00%     65.47% # Class of committed instruction
system.cpu.commit.op_class_0::SimdCmp               0      0.00%     65.47% # Class of committed instruction
system.cpu.commit.op_class_0::SimdCvt               0      0.00%     65.47% # Class of committed instruction
system.cpu.commit.op_class_0::SimdMisc              0      0.00%     65.47% # Class of committed instruction
system.cpu.commit.op_class_0::SimdMult              0      0.00%     65.47% # Class of committed instruction
system.cpu.commit.op_class_0::SimdMultAcc            0      0.00%     65.47% # Class of committed instruction
system.cpu.commit.op_class_0::SimdShift             0      0.00%     65.47% # Class of committed instruction
system.cpu.commit.op_class_0::SimdShiftAcc            0      0.00%     65.47% # Class of committed instruction
system.cpu.commit.op_class_0::SimdDiv               0      0.00%     65.47% # Class of committed instruction
system.cpu.commit.op_class_0::SimdSqrt              0      0.00%     65.47% # Class of committed instruction
system.cpu.commit.op_class_0::SimdFloatAdd            0      0.00%     65.47% # Class of committed instruction
system.cpu.commit.op_class_0::SimdFloatAlu            0      0.00%     65.47% # Class of committed instruction
system.cpu.commit.op_class_0::SimdFloatCmp            0      0.00%     65.47% # Class of committed instruction
system.cpu.commit.op_class_0::SimdFloatCvt            0      0.00%     65.47% # Class of committed instruction
system.cpu.commit.op_class_0::SimdFloatDiv            0      0.00%     65.47% # Class of committed instruction
system.cpu.commit.op_class_0::SimdFloatMisc            0      0.00%     65.47% # Class of committed instruction
system.cpu.commit.op_class_0::SimdFloatMult            0      0.00%     65.47% # Class of committed instruction
system.cpu.commit.op_class_0::SimdFloatMultAcc            0      0.00%     65.47% # Class of committed instruction
system.cpu.commit.op_class_0::SimdFloatSqrt            0      0.00%     65.47% # Class of committed instruction
system.cpu.commit.op_class_0::SimdReduceAdd            0      0.00%     65.47% # Class of committed instruction
system.cpu.commit.op_class_0::SimdReduceAlu            0      0.00%     65.47% # Class of committed instruction
system.cpu.commit.op_class_0::SimdReduceCmp            0      0.00%     65.47% # Class of committed instruction
system.cpu.commit.op_class_0::SimdFloatReduceAdd            0      0.00%     65.47% # Class of committed instruction
system.cpu.commit.op_class_0::SimdFloatReduceCmp            0      0.00%     65.47% # Class of committed instruction
system.cpu.commit.op_class_0::SimdAes               0      0.00%     65.47% # Class of committed instruction
system.cpu.commit.op_class_0::SimdAesMix            0      0.00%     65.47% # Class of committed instruction
system.cpu.commit.op_class_0::SimdSha1Hash            0      0.00%     65.47% # Class of committed instruction
system.cpu.commit.op_class_0::SimdSha1Hash2            0      0.00%     65.47% # Class of committed instruction
system.cpu.commit.op_class_0::SimdSha256Hash            0      0.00%     65.47% # Class of committed instruction
system.cpu.commit.op_class_0::SimdSha256Hash2            0      0.00%     65.47% # Class of committed instruction
system.cpu.commit.op_class_0::SimdShaSigma2            0      0.00%     65.47% # Class of committed instruction
system.cpu.commit.op_class_0::SimdShaSigma3            0      0.00%     65.47% # Class of committed instruction
system.cpu.commit.op_class_0::SimdPredAlu            0      0.00%     65.47% # Class of committed instruction
system.cpu.commit.op_class_0::MemRead        44251403     20.26%     85.73% # Class of committed instruction
system.cpu.commit.op_class_0::MemWrite       31157104     14.27%    100.00% # Class of committed instruction
system.cpu.commit.op_class_0::FloatMemRead            0      0.00%    100.00% # Class of committed instruction
system.cpu.commit.op_class_0::FloatMemWrite            0      0.00%    100.00% # Class of committed instruction
system.cpu.commit.op_class_0::IprAccess             0      0.00%    100.00% # Class of committed instruction
system.cpu.commit.op_class_0::InstPrefetch            0      0.00%    100.00% # Class of committed instruction
system.cpu.commit.op_class_0::total         218365224                       # Class of committed instruction
system.cpu.commit.refs                       75408507                       # Number of memory references committed
system.cpu.commit.swp_count                         0                       # Number of s/w prefetches committed
system.cpu.commit.vec_insts                         0                       # Number of committed Vector instructions.
system.cpu.committedInsts                   200000000                       # Number of Instructions Simulated
system.cpu.committedOps                     218365224                       # Number of Ops (including micro ops) Simulated
system.cpu.cpi                               0.750356                       # CPI: Cycles Per Instruction
system.cpu.cpi_total                         0.750356                       # CPI: Total CPI of All Threads
system.cpu.decode.BlockedCycles              32774215                       # Number of cycles decode is blocked
system.cpu.decode.BranchMispred                156208                       # Number of times decode detected a branch misprediction
system.cpu.decode.BranchResolved             19475286                       # Number of times decode resolved a branch
system.cpu.decode.DecodedInsts              234073329                       # Number of instructions handled by decode
system.cpu.decode.IdleCycles                 66242720                       # Number of cycles decode is idle
system.cpu.decode.RunCycles                  46301251                       # Number of cycles decode is running
system.cpu.decode.SquashCycles                 619913                       # Number of cycles decode is squashing
system.cpu.decode.SquashedInsts                457104                       # Number of squashed instructions handled by decode
system.cpu.decode.UnblockCycles                638059                       # Number of cycles decode is unblocking
system.cpu.dtb.accesses                             0                       # DTB accesses
system.cpu.dtb.align_faults                         0                       # Number of TLB faults due to alignment restrictions
system.cpu.dtb.domain_faults                        0                       # Number of TLB faults due to domain restrictions
system.cpu.dtb.flush_entries                        0                       # Number of entries that have been flushed from TLB
system.cpu.dtb.flush_tlb                            0                       # Number of times complete TLB was flushed
system.cpu.dtb.flush_tlb_asid                       0                       # Number of times TLB was flushed by ASID
system.cpu.dtb.flush_tlb_mva                        0                       # Number of times TLB was flushed by MVA
system.cpu.dtb.flush_tlb_mva_asid                   0                       # Number of times TLB was flushed by MVA & ASID
system.cpu.dtb.hits                                 0                       # DTB hits
system.cpu.dtb.inst_accesses                        0                       # ITB inst accesses
system.cpu.dtb.inst_hits                            0                       # ITB inst hits
system.cpu.dtb.inst_misses                          0                       # ITB inst misses
system.cpu.dtb.misses                               0                       # DTB misses
system.cpu.dtb.perms_faults                         0                       # Number of TLB faults due to permissions restrictions
system.cpu.dtb.prefetch_faults                      0                       # Number of TLB faults due to prefetch
system.cpu.dtb.read_accesses                        0                       # DTB read accesses
system.cpu.dtb.read_hits                            0                       # DTB read hits
system.cpu.dtb.read_misses                          0                       # DTB read misses
system.cpu.dtb.stage2_mmu.stage2_tlb.accesses            0                       # DTB accesses
system.cpu.dtb.stage2_mmu.stage2_tlb.align_faults            0                       # Number of TLB faults due to alignment restrictions
system.cpu.dtb.stage2_mmu.stage2_tlb.domain_faults            0                       # Number of TLB faults due to domain restrictions
system.cpu.dtb.stage2_mmu.stage2_tlb.flush_entries            0                       # Number of entries that have been flushed from TLB
system.cpu.dtb.stage2_mmu.stage2_tlb.flush_tlb            0                       # Number of times complete TLB was flushed
system.cpu.dtb.stage2_mmu.stage2_tlb.flush_tlb_asid            0                       # Number of times TLB was flushed by ASID
system.cpu.dtb.stage2_mmu.stage2_tlb.flush_tlb_mva            0                       # Number of times TLB was flushed by MVA
system.cpu.dtb.stage2_mmu.stage2_tlb.flush_tlb_mva_asid            0                       # Number of times TLB was flushed by MVA & ASID
system.cpu.dtb.stage2_mmu.stage2_tlb.hits            0                       # DTB hits
system.cpu.dtb.stage2_mmu.stage2_tlb.inst_accesses            0                       # ITB inst accesses
system.cpu.dtb.stage2_mmu.stage2_tlb.inst_hits            0                       # ITB inst hits
system.cpu.dtb.stage2_mmu.stage2_tlb.inst_misses            0                       # ITB inst misses
system.cpu.dtb.stage2_mmu.stage2_tlb.misses            0                       # DTB misses
system.cpu.dtb.stage2_mmu.stage2_tlb.perms_faults            0                       # Number of TLB faults due to permissions restrictions
system.cpu.dtb.stage2_mmu.stage2_tlb.prefetch_faults            0                       # Number of TLB faults due to prefetch
system.cpu.dtb.stage2_mmu.stage2_tlb.read_accesses            0                       # DTB read accesses
system.cpu.dtb.stage2_mmu.stage2_tlb.read_hits            0                       # DTB read hits
system.cpu.dtb.stage2_mmu.stage2_tlb.read_misses            0                       # DTB read misses
system.cpu.dtb.stage2_mmu.stage2_tlb.walker.walkRequestOrigin_Requested::Data            0                       # Table walker requests started/completed, data/inst
system.cpu.dtb.stage2_mmu.stage2_tlb.walker.walkRequestOrigin_Requested::Inst            0                       # Table walker requests started/completed, data/inst
system.cpu.dtb.stage2_mmu.stage2_tlb.walker.walkRequestOrigin_Requested::total            0                       # Table walker requests started/completed, data/inst
system.cpu.dtb.stage2_mmu.stage2_tlb.walker.walkRequestOrigin_Completed::Data            0                       # Table walker requests started/completed, data/inst
system.cpu.dtb.stage2_mmu.stage2_tlb.walker.walkRequestOrigin_Completed::Inst            0                       # Table walker requests started/completed, data/inst
system.cpu.dtb.stage2_mmu.stage2_tlb.walker.walkRequestOrigin_Completed::total            0                       # Table walker requests started/completed, data/inst
system.cpu.dtb.stage2_mmu.stage2_tlb.walker.walkRequestOrigin::total            0                       # Table walker requests started/completed, data/inst
system.cpu.dtb.stage2_mmu.stage2_tlb.walker.walks            0                       # Table walker walks requested
system.cpu.dtb.stage2_mmu.stage2_tlb.write_accesses            0                       # DTB write accesses
system.cpu.dtb.stage2_mmu.stage2_tlb.write_hits            0                       # DTB write hits
system.cpu.dtb.stage2_mmu.stage2_tlb.write_misses            0                       # DTB write misses
system.cpu.dtb.walker.walkRequestOrigin_Requested::Data            0                       # Table walker requests started/completed, data/inst
system.cpu.dtb.walker.walkRequestOrigin_Requested::Inst            0                       # Table walker requests started/completed, data/inst
system.cpu.dtb.walker.walkRequestOrigin_Requested::total            0                       # Table walker requests started/completed, data/inst
system.cpu.dtb.walker.walkRequestOrigin_Completed::Data            0                       # Table walker requests started/completed, data/inst
system.cpu.dtb.walker.walkRequestOrigin_Completed::Inst            0                       # Table walker requests started/completed, data/inst
system.cpu.dtb.walker.walkRequestOrigin_Completed::total            0                       # Table walker requests started/completed, data/inst
system.cpu.dtb.walker.walkRequestOrigin::total            0                       # Table walker requests started/completed, data/inst
system.cpu.dtb.walker.walks                         0                       # Table walker walks requested
system.cpu.dtb.write_accesses                       0                       # DTB write accesses
system.cpu.dtb.write_hits                           0                       # DTB write hits
system.cpu.dtb.write_misses                         0                       # DTB write misses
system.cpu.fetch.Branches                    48104101                       # Number of branches that fetch encountered
system.cpu.fetch.CacheLines                  34400554                       # Number of cache lines fetched
system.cpu.fetch.Cycles                      77892040                       # Number of cycles fetch has run and was not squashing or blocked
system.cpu.fetch.IcacheSquashes                435365                       # Number of outstanding Icache misses that were squashed
system.cpu.fetch.IcacheWaitRetryStallCycles      1109003                       # Number of stall cycles due to full MSHR
system.cpu.fetch.Insts                      217444408                       # Number of instructions fetch has processed
system.cpu.fetch.MiscStallCycles               109315                       # Number of cycles fetch has spent waiting on interrupts, or bad addresses, or out of MSHRs
system.cpu.fetch.PendingTrapStallCycles           664                       # Number of stall cycles due to pending traps
system.cpu.fetch.SquashCycles                 1552222                       # Number of cycles fetch has spent squashing
system.cpu.fetch.branchRate                  0.320542                       # Number of branch fetches per cycle
system.cpu.fetch.icacheStallCycles           66689025                       # Number of cycles fetch is stalled on an Icache miss
system.cpu.fetch.predictedBranches           24827700                       # Number of branches that fetch has predicted taken
system.cpu.fetch.rate                        1.448941                       # Number of inst fetches per cycle
system.cpu.fetch.rateDist::samples          146576158                       # Number of instructions fetched each cycle (Total)
system.cpu.fetch.rateDist::mean              1.635921                       # Number of instructions fetched each cycle (Total)
system.cpu.fetch.rateDist::stdev             2.754847                       # Number of instructions fetched each cycle (Total)
system.cpu.fetch.rateDist::underflows               0      0.00%      0.00% # Number of instructions fetched each cycle (Total)
system.cpu.fetch.rateDist::0                 97882449     66.78%     66.78% # Number of instructions fetched each cycle (Total)
system.cpu.fetch.rateDist::1                  4331250      2.95%     69.73% # Number of instructions fetched each cycle (Total)
system.cpu.fetch.rateDist::2                  8946885      6.10%     75.84% # Number of instructions fetched each cycle (Total)
system.cpu.fetch.rateDist::3                  4827092      3.29%     79.13% # Number of instructions fetched each cycle (Total)
system.cpu.fetch.rateDist::4                  4843037      3.30%     82.44% # Number of instructions fetched each cycle (Total)
system.cpu.fetch.rateDist::5                  3222408      2.20%     84.63% # Number of instructions fetched each cycle (Total)
system.cpu.fetch.rateDist::6                  5198122      3.55%     88.18% # Number of instructions fetched each cycle (Total)
system.cpu.fetch.rateDist::7                  2191520      1.50%     89.68% # Number of instructions fetched each cycle (Total)
system.cpu.fetch.rateDist::8                 15133395     10.32%    100.00% # Number of instructions fetched each cycle (Total)
system.cpu.fetch.rateDist::overflows                0      0.00%    100.00% # Number of instructions fetched each cycle (Total)
system.cpu.fetch.rateDist::min_value                0                       # Number of instructions fetched each cycle (Total)
system.cpu.fetch.rateDist::max_value                8                       # Number of instructions fetched each cycle (Total)
system.cpu.fetch.rateDist::total            146576158                       # Number of instructions fetched each cycle (Total)
system.cpu.idleCycles                         3495107                       # Total number of cycles that the CPU has spent unscheduled due to idling
system.cpu.iew.branchMispredicts               678602                       # Number of branch mispredicts detected at execute
system.cpu.iew.exec_branches                 45186753                       # Number of branches executed
system.cpu.iew.exec_nop                             0                       # number of nop insts executed
system.cpu.iew.exec_rate                     1.504208                       # Inst execution rate
system.cpu.iew.exec_refs                     79492222                       # number of memory reference insts executed
system.cpu.iew.exec_stores                   31409913                       # Number of stores executed
system.cpu.iew.exec_swp                             0                       # number of swp insts executed
system.cpu.iew.iewBlockCycles                 2448892                       # Number of cycles IEW is blocking
system.cpu.iew.iewDispLoadInsts              45922959                       # Number of dispatched load instructions
system.cpu.iew.iewDispNonSpecInsts             169929                       # Number of dispatched non-speculative instructions
system.cpu.iew.iewDispSquashedInsts           1672893                       # Number of squashed instructions skipped by dispatch
system.cpu.iew.iewDispStoreInsts             32367213                       # Number of dispatched store instructions
system.cpu.iew.iewDispatchedInsts           227243041                       # Number of instructions dispatched to IQ
system.cpu.iew.iewExecLoadInsts              48082309                       # Number of load instructions executed
system.cpu.iew.iewExecSquashedInsts            907859                       # Number of squashed instructions skipped in execute
system.cpu.iew.iewExecutedInsts             225738464                       # Number of executed instructions
system.cpu.iew.iewIQFullEvents                 179684                       # Number of times the IQ has become full, causing a stall
system.cpu.iew.iewIdleCycles                        0                       # Number of cycles IEW is idle
system.cpu.iew.iewLSQFullEvents               5244119                       # Number of times the LSQ has become full, causing a stall
system.cpu.iew.iewSquashCycles                 619913                       # Number of cycles IEW is squashing
system.cpu.iew.iewUnblockCycles               5443867                       # Number of cycles IEW is unblocking
system.cpu.iew.lsq.thread0.blockedLoads             0                       # Number of blocked loads due to partial load-store forwarding
system.cpu.iew.lsq.thread0.cacheBlocked        454838                       # Number of times an access to memory failed due to the cache being blocked
system.cpu.iew.lsq.thread0.forwLoads          3380123                       # Number of loads that had data forwarded from stores
system.cpu.iew.lsq.thread0.ignoredResponses         1152                       # Number of memory responses ignored because the instruction is squashed
system.cpu.iew.lsq.thread0.invAddrLoads             0                       # Number of loads ignored due to an invalid address
system.cpu.iew.lsq.thread0.invAddrSwpfs             0                       # Number of software prefetches ignored due to an invalid address
system.cpu.iew.lsq.thread0.memOrderViolation         4000                       # Number of memory ordering violations
system.cpu.iew.lsq.thread0.rescheduledLoads       538555                       # Number of loads that were rescheduled
system.cpu.iew.lsq.thread0.squashedLoads      1671550                       # Number of loads squashed
system.cpu.iew.lsq.thread0.squashedStores      1210109                       # Number of stores squashed
system.cpu.iew.memOrderViolationEvents           4000                       # Number of memory order violations
system.cpu.iew.predictedNotTakenIncorrect       235544                       # Number of branches that were predicted not taken incorrectly
system.cpu.iew.predictedTakenIncorrect         443058                       # Number of branches that were predicted taken incorrectly
system.cpu.iew.wb_consumers                 205331904                       # num instructions consuming a value
system.cpu.iew.wb_count                     222568884                       # cumulative count of insts written-back
system.cpu.iew.wb_fanout                     0.575853                       # average fanout of values written-back
system.cpu.iew.wb_producers                 118241030                       # num instructions producing a value
system.cpu.iew.wb_rate                       1.483088                       # insts written-back per cycle
system.cpu.iew.wb_sent                      222878723                       # cumulative count of insts sent to commit
system.cpu.int_regfile_reads                232615868                       # number of integer regfile reads
system.cpu.int_regfile_writes               116795578                       # number of integer regfile writes
system.cpu.ipc                               1.332700                       # IPC: Instructions Per Cycle
system.cpu.ipc_total                         1.332700                       # IPC: Total IPC of All Threads
system.cpu.iq.FU_type_0::No_OpClass                69      0.00%      0.00% # Type of FU issued
system.cpu.iq.FU_type_0::IntAlu             145821244     64.34%     64.34% # Type of FU issued
system.cpu.iq.FU_type_0::IntMult              1015483      0.45%     64.79% # Type of FU issued
system.cpu.iq.FU_type_0::IntDiv                     0      0.00%     64.79% # Type of FU issued
system.cpu.iq.FU_type_0::FloatAdd                   0      0.00%     64.79% # Type of FU issued
system.cpu.iq.FU_type_0::FloatCmp                   0      0.00%     64.79% # Type of FU issued
system.cpu.iq.FU_type_0::FloatCvt                   0      0.00%     64.79% # Type of FU issued
system.cpu.iq.FU_type_0::FloatMult                  0      0.00%     64.79% # Type of FU issued
system.cpu.iq.FU_type_0::FloatMultAcc               0      0.00%     64.79% # Type of FU issued
system.cpu.iq.FU_type_0::FloatDiv                   0      0.00%     64.79% # Type of FU issued
system.cpu.iq.FU_type_0::FloatMisc                  0      0.00%     64.79% # Type of FU issued
system.cpu.iq.FU_type_0::FloatSqrt                  0      0.00%     64.79% # Type of FU issued
system.cpu.iq.FU_type_0::SimdAdd                    0      0.00%     64.79% # Type of FU issued
system.cpu.iq.FU_type_0::SimdAddAcc                 0      0.00%     64.79% # Type of FU issued
system.cpu.iq.FU_type_0::SimdAlu                    0      0.00%     64.79% # Type of FU issued
system.cpu.iq.FU_type_0::SimdCmp                    0      0.00%     64.79% # Type of FU issued
system.cpu.iq.FU_type_0::SimdCvt                    0      0.00%     64.79% # Type of FU issued
system.cpu.iq.FU_type_0::SimdMisc                   0      0.00%     64.79% # Type of FU issued
system.cpu.iq.FU_type_0::SimdMult                   0      0.00%     64.79% # Type of FU issued
system.cpu.iq.FU_type_0::SimdMultAcc                0      0.00%     64.79% # Type of FU issued
system.cpu.iq.FU_type_0::SimdShift                  0      0.00%     64.79% # Type of FU issued
system.cpu.iq.FU_type_0::SimdShiftAcc               0      0.00%     64.79% # Type of FU issued
system.cpu.iq.FU_type_0::SimdDiv                    0      0.00%     64.79% # Type of FU issued
system.cpu.iq.FU_type_0::SimdSqrt                   0      0.00%     64.79% # Type of FU issued
system.cpu.iq.FU_type_0::SimdFloatAdd               0      0.00%     64.79% # Type of FU issued
system.cpu.iq.FU_type_0::SimdFloatAlu               0      0.00%     64.79% # Type of FU issued
system.cpu.iq.FU_type_0::SimdFloatCmp               0      0.00%     64.79% # Type of FU issued
system.cpu.iq.FU_type_0::SimdFloatCvt               0      0.00%     64.79% # Type of FU issued
system.cpu.iq.FU_type_0::SimdFloatDiv               0      0.00%     64.79% # Type of FU issued
system.cpu.iq.FU_type_0::SimdFloatMisc              0      0.00%     64.79% # Type of FU issued
system.cpu.iq.FU_type_0::SimdFloatMult              0      0.00%     64.79% # Type of FU issued
system.cpu.iq.FU_type_0::SimdFloatMultAcc            0      0.00%     64.79% # Type of FU issued
system.cpu.iq.FU_type_0::SimdFloatSqrt              0      0.00%     64.79% # Type of FU issued
system.cpu.iq.FU_type_0::SimdReduceAdd              0      0.00%     64.79% # Type of FU issued
system.cpu.iq.FU_type_0::SimdReduceAlu              0      0.00%     64.79% # Type of FU issued
system.cpu.iq.FU_type_0::SimdReduceCmp              0      0.00%     64.79% # Type of FU issued
system.cpu.iq.FU_type_0::SimdFloatReduceAdd            0      0.00%     64.79% # Type of FU issued
system.cpu.iq.FU_type_0::SimdFloatReduceCmp            0      0.00%     64.79% # Type of FU issued
system.cpu.iq.FU_type_0::SimdAes                    0      0.00%     64.79% # Type of FU issued
system.cpu.iq.FU_type_0::SimdAesMix                 0      0.00%     64.79% # Type of FU issued
system.cpu.iq.FU_type_0::SimdSha1Hash               0      0.00%     64.79% # Type of FU issued
system.cpu.iq.FU_type_0::SimdSha1Hash2              0      0.00%     64.79% # Type of FU issued
system.cpu.iq.FU_type_0::SimdSha256Hash             0      0.00%     64.79% # Type of FU issued
system.cpu.iq.FU_type_0::SimdSha256Hash2            0      0.00%     64.79% # Type of FU issued
system.cpu.iq.FU_type_0::SimdShaSigma2              0      0.00%     64.79% # Type of FU issued
system.cpu.iq.FU_type_0::SimdShaSigma3              0      0.00%     64.79% # Type of FU issued
system.cpu.iq.FU_type_0::SimdPredAlu                0      0.00%     64.79% # Type of FU issued
system.cpu.iq.FU_type_0::MemRead             48197852     21.27%     86.05% # Type of FU issued
system.cpu.iq.FU_type_0::MemWrite            31611677     13.95%    100.00% # Type of FU issued
system.cpu.iq.FU_type_0::FloatMemRead               0      0.00%    100.00% # Type of FU issued
system.cpu.iq.FU_type_0::FloatMemWrite              0      0.00%    100.00% # Type of FU issued
system.cpu.iq.FU_type_0::IprAccess                  0      0.00%    100.00% # Type of FU issued
system.cpu.iq.FU_type_0::InstPrefetch               0      0.00%    100.00% # Type of FU issued
system.cpu.iq.FU_type_0::total              226646325                       # Type of FU issued
system.cpu.iq.fp_alu_accesses                       0                       # Number of floating point alu accesses
system.cpu.iq.fp_inst_queue_reads                   0                       # Number of floating instruction queue reads
system.cpu.iq.fp_inst_queue_wakeup_accesses            0                       # Number of floating instruction queue wakeup accesses
system.cpu.iq.fp_inst_queue_writes                  0                       # Number of floating instruction queue writes
system.cpu.iq.fu_busy_cnt                     3608864                       # FU busy when requested
system.cpu.iq.fu_busy_rate                   0.015923                       # FU busy rate (busy events/executed inst)
system.cpu.iq.fu_full::No_OpClass                   0      0.00%      0.00% # attempts to use FU when none available
system.cpu.iq.fu_full::IntAlu                  677125     18.76%     18.76% # attempts to use FU when none available
system.cpu.iq.fu_full::IntMult                      0      0.00%     18.76% # attempts to use FU when none available
system.cpu.iq.fu_full::IntDiv                       0      0.00%     18.76% # attempts to use FU when none available
system.cpu.iq.fu_full::FloatAdd                     0      0.00%     18.76% # attempts to use FU when none available
system.cpu.iq.fu_full::FloatCmp                     0      0.00%     18.76% # attempts to use FU when none available
system.cpu.iq.fu_full::FloatCvt                     0      0.00%     18.76% # attempts to use FU when none available
system.cpu.iq.fu_full::FloatMult                    0      0.00%     18.76% # attempts to use FU when none available
system.cpu.iq.fu_full::FloatMultAcc                 0      0.00%     18.76% # attempts to use FU when none available
system.cpu.iq.fu_full::FloatDiv                     0      0.00%     18.76% # attempts to use FU when none available
system.cpu.iq.fu_full::FloatMisc                    0      0.00%     18.76% # attempts to use FU when none available
system.cpu.iq.fu_full::FloatSqrt                    0      0.00%     18.76% # attempts to use FU when none available
system.cpu.iq.fu_full::SimdAdd                      0      0.00%     18.76% # attempts to use FU when none available
system.cpu.iq.fu_full::SimdAddAcc                   0      0.00%     18.76% # attempts to use FU when none available
system.cpu.iq.fu_full::SimdAlu                      0      0.00%     18.76% # attempts to use FU when none available
system.cpu.iq.fu_full::SimdCmp                      0      0.00%     18.76% # attempts to use FU when none available
system.cpu.iq.fu_full::SimdCvt                      0      0.00%     18.76% # attempts to use FU when none available
system.cpu.iq.fu_full::SimdMisc                     0      0.00%     18.76% # attempts to use FU when none available
system.cpu.iq.fu_full::SimdMult                     0      0.00%     18.76% # attempts to use FU when none available
system.cpu.iq.fu_full::SimdMultAcc                  0      0.00%     18.76% # attempts to use FU when none available
system.cpu.iq.fu_full::SimdShift                    0      0.00%     18.76% # attempts to use FU when none available
system.cpu.iq.fu_full::SimdShiftAcc                 0      0.00%     18.76% # attempts to use FU when none available
system.cpu.iq.fu_full::SimdDiv                      0      0.00%     18.76% # attempts to use FU when none available
system.cpu.iq.fu_full::SimdSqrt                     0      0.00%     18.76% # attempts to use FU when none available
system.cpu.iq.fu_full::SimdFloatAdd                 0      0.00%     18.76% # attempts to use FU when none available
system.cpu.iq.fu_full::SimdFloatAlu                 0      0.00%     18.76% # attempts to use FU when none available
system.cpu.iq.fu_full::SimdFloatCmp                 0      0.00%     18.76% # attempts to use FU when none available
system.cpu.iq.fu_full::SimdFloatCvt                 0      0.00%     18.76% # attempts to use FU when none available
system.cpu.iq.fu_full::SimdFloatDiv                 0      0.00%     18.76% # attempts to use FU when none available
system.cpu.iq.fu_full::SimdFloatMisc                0      0.00%     18.76% # attempts to use FU when none available
system.cpu.iq.fu_full::SimdFloatMult                0      0.00%     18.76% # attempts to use FU when none available
system.cpu.iq.fu_full::SimdFloatMultAcc             0      0.00%     18.76% # attempts to use FU when none available
system.cpu.iq.fu_full::SimdFloatSqrt                0      0.00%     18.76% # attempts to use FU when none available
system.cpu.iq.fu_full::SimdReduceAdd                0      0.00%     18.76% # attempts to use FU when none available
system.cpu.iq.fu_full::SimdReduceAlu                0      0.00%     18.76% # attempts to use FU when none available
system.cpu.iq.fu_full::SimdReduceCmp                0      0.00%     18.76% # attempts to use FU when none available
system.cpu.iq.fu_full::SimdFloatReduceAdd            0      0.00%     18.76% # attempts to use FU when none available
system.cpu.iq.fu_full::SimdFloatReduceCmp            0      0.00%     18.76% # attempts to use FU when none available
system.cpu.iq.fu_full::SimdAes                      0      0.00%     18.76% # attempts to use FU when none available
system.cpu.iq.fu_full::SimdAesMix                   0      0.00%     18.76% # attempts to use FU when none available
system.cpu.iq.fu_full::SimdSha1Hash                 0      0.00%     18.76% # attempts to use FU when none available
system.cpu.iq.fu_full::SimdSha1Hash2                0      0.00%     18.76% # attempts to use FU when none available
system.cpu.iq.fu_full::SimdSha256Hash               0      0.00%     18.76% # attempts to use FU when none available
system.cpu.iq.fu_full::SimdSha256Hash2              0      0.00%     18.76% # attempts to use FU when none available
system.cpu.iq.fu_full::SimdShaSigma2                0      0.00%     18.76% # attempts to use FU when none available
system.cpu.iq.fu_full::SimdShaSigma3                0      0.00%     18.76% # attempts to use FU when none available
system.cpu.iq.fu_full::SimdPredAlu                  0      0.00%     18.76% # attempts to use FU when none available
system.cpu.iq.fu_full::MemRead                 943819     26.15%     44.92% # attempts to use FU when none available
system.cpu.iq.fu_full::MemWrite               1987920     55.08%    100.00% # attempts to use FU when none available
system.cpu.iq.fu_full::FloatMemRead                 0      0.00%    100.00% # attempts to use FU when none available
system.cpu.iq.fu_full::FloatMemWrite                0      0.00%    100.00% # attempts to use FU when none available
system.cpu.iq.fu_full::IprAccess                    0      0.00%    100.00% # attempts to use FU when none available
system.cpu.iq.fu_full::InstPrefetch                 0      0.00%    100.00% # attempts to use FU when none available
system.cpu.iq.int_alu_accesses              230255120                       # Number of integer alu accesses
system.cpu.iq.int_inst_queue_reads          603501529                       # Number of integer instruction queue reads
system.cpu.iq.int_inst_queue_wakeup_accesses    222568884                       # Number of integer instruction queue wakeup accesses
system.cpu.iq.int_inst_queue_writes         236124776                       # Number of integer instruction queue writes
system.cpu.iq.iqInstsAdded                  226904750                       # Number of instructions added to the IQ (excludes non-spec)
system.cpu.iq.iqInstsIssued                 226646325                       # Number of instructions issued
system.cpu.iq.iqNonSpecInstsAdded              338291                       # Number of non-speculative instructions added to the IQ
system.cpu.iq.iqSquashedInstsExamined         8877793                       # Number of squashed instructions iterated over during squash; mainly for profiling
system.cpu.iq.iqSquashedInstsIssued             23859                       # Number of squashed instructions issued
system.cpu.iq.iqSquashedNonSpecRemoved           1394                       # Number of squashed non-spec instructions that were removed
system.cpu.iq.iqSquashedOperandsExamined     19462256                       # Number of squashed operands that are examined and possibly removed from graph
system.cpu.iq.issued_per_cycle::samples     146576158                       # Number of insts issued each cycle
system.cpu.iq.issued_per_cycle::mean         1.546270                       # Number of insts issued each cycle
system.cpu.iq.issued_per_cycle::stdev        1.962496                       # Number of insts issued each cycle
system.cpu.iq.issued_per_cycle::underflows            0      0.00%      0.00% # Number of insts issued each cycle
system.cpu.iq.issued_per_cycle::0            67865861     46.30%     46.30% # Number of insts issued each cycle
system.cpu.iq.issued_per_cycle::1            23948065     16.34%     62.64% # Number of insts issued each cycle
system.cpu.iq.issued_per_cycle::2            16312529     11.13%     73.77% # Number of insts issued each cycle
system.cpu.iq.issued_per_cycle::3            11982384      8.17%     81.94% # Number of insts issued each cycle
system.cpu.iq.issued_per_cycle::4            11552677      7.88%     89.82% # Number of insts issued each cycle
system.cpu.iq.issued_per_cycle::5             6800036      4.64%     94.46% # Number of insts issued each cycle
system.cpu.iq.issued_per_cycle::6             4392672      3.00%     97.46% # Number of insts issued each cycle
system.cpu.iq.issued_per_cycle::7             2216342      1.51%     98.97% # Number of insts issued each cycle
system.cpu.iq.issued_per_cycle::8             1505592      1.03%    100.00% # Number of insts issued each cycle
system.cpu.iq.issued_per_cycle::overflows            0      0.00%    100.00% # Number of insts issued each cycle
system.cpu.iq.issued_per_cycle::min_value            0                       # Number of insts issued each cycle
system.cpu.iq.issued_per_cycle::max_value            8                       # Number of insts issued each cycle
system.cpu.iq.issued_per_cycle::total       146576158                       # Number of insts issued each cycle
system.cpu.iq.rate                           1.510258                       # Inst issue rate
system.cpu.iq.vec_alu_accesses                      0                       # Number of vector alu accesses
system.cpu.iq.vec_inst_queue_reads                  0                       # Number of vector instruction queue reads
system.cpu.iq.vec_inst_queue_wakeup_accesses            0                       # Number of vector instruction queue wakeup accesses
system.cpu.iq.vec_inst_queue_writes                 0                       # Number of vector instruction queue writes
system.cpu.itb.accesses                             0                       # DTB accesses
system.cpu.itb.align_faults                         0                       # Number of TLB faults due to alignment restrictions
system.cpu.itb.domain_faults                        0                       # Number of TLB faults due to domain restrictions
system.cpu.itb.flush_entries                        0                       # Number of entries that have been flushed from TLB
system.cpu.itb.flush_tlb                            0                       # Number of times complete TLB was flushed
system.cpu.itb.flush_tlb_asid                       0                       # Number of times TLB was flushed by ASID
system.cpu.itb.flush_tlb_mva                        0                       # Number of times TLB was flushed by MVA
system.cpu.itb.flush_tlb_mva_asid                   0                       # Number of times TLB was flushed by MVA & ASID
system.cpu.itb.hits                                 0                       # DTB hits
system.cpu.itb.inst_accesses                        0                       # ITB inst accesses
system.cpu.itb.inst_hits                            0                       # ITB inst hits
system.cpu.itb.inst_misses                          0                       # ITB inst misses
system.cpu.itb.misses                               0                       # DTB misses
system.cpu.itb.perms_faults                         0                       # Number of TLB faults due to permissions restrictions
system.cpu.itb.prefetch_faults                      0                       # Number of TLB faults due to prefetch
system.cpu.itb.read_accesses                        0                       # DTB read accesses
system.cpu.itb.read_hits                            0                       # DTB read hits
system.cpu.itb.read_misses                          0                       # DTB read misses
system.cpu.itb.stage2_mmu.stage2_tlb.accesses            0                       # DTB accesses
system.cpu.itb.stage2_mmu.stage2_tlb.align_faults            0                       # Number of TLB faults due to alignment restrictions
system.cpu.itb.stage2_mmu.stage2_tlb.domain_faults            0                       # Number of TLB faults due to domain restrictions
system.cpu.itb.stage2_mmu.stage2_tlb.flush_entries            0                       # Number of entries that have been flushed from TLB
system.cpu.itb.stage2_mmu.stage2_tlb.flush_tlb            0                       # Number of times complete TLB was flushed
system.cpu.itb.stage2_mmu.stage2_tlb.flush_tlb_asid            0                       # Number of times TLB was flushed by ASID
system.cpu.itb.stage2_mmu.stage2_tlb.flush_tlb_mva            0                       # Number of times TLB was flushed by MVA
system.cpu.itb.stage2_mmu.stage2_tlb.flush_tlb_mva_asid            0                       # Number of times TLB was flushed by MVA & ASID
system.cpu.itb.stage2_mmu.stage2_tlb.hits            0                       # DTB hits
system.cpu.itb.stage2_mmu.stage2_tlb.inst_accesses            0                       # ITB inst accesses
system.cpu.itb.stage2_mmu.stage2_tlb.inst_hits            0                       # ITB inst hits
system.cpu.itb.stage2_mmu.stage2_tlb.inst_misses            0                       # ITB inst misses
system.cpu.itb.stage2_mmu.stage2_tlb.misses            0                       # DTB misses
system.cpu.itb.stage2_mmu.stage2_tlb.perms_faults            0                       # Number of TLB faults due to permissions restrictions
system.cpu.itb.stage2_mmu.stage2_tlb.prefetch_faults            0                       # Number of TLB faults due to prefetch
system.cpu.itb.stage2_mmu.stage2_tlb.read_accesses            0                       # DTB read accesses
system.cpu.itb.stage2_mmu.stage2_tlb.read_hits            0                       # DTB read hits
system.cpu.itb.stage2_mmu.stage2_tlb.read_misses            0                       # DTB read misses
system.cpu.itb.stage2_mmu.stage2_tlb.walker.walkRequestOrigin_Requested::Data            0                       # Table walker requests started/completed, data/inst
system.cpu.itb.stage2_mmu.stage2_tlb.walker.walkRequestOrigin_Requested::Inst            0                       # Table walker requests started/completed, data/inst
system.cpu.itb.stage2_mmu.stage2_tlb.walker.walkRequestOrigin_Requested::total            0                       # Table walker requests started/completed, data/inst
system.cpu.itb.stage2_mmu.stage2_tlb.walker.walkRequestOrigin_Completed::Data            0                       # Table walker requests started/completed, data/inst
system.cpu.itb.stage2_mmu.stage2_tlb.walker.walkRequestOrigin_Completed::Inst            0                       # Table walker requests started/completed, data/inst
system.cpu.itb.stage2_mmu.stage2_tlb.walker.walkRequestOrigin_Completed::total            0                       # Table walker requests started/completed, data/inst
system.cpu.itb.stage2_mmu.stage2_tlb.walker.walkRequestOrigin::total            0                       # Table walker requests started/completed, data/inst
system.cpu.itb.stage2_mmu.stage2_tlb.walker.walks            0                       # Table walker walks requested
system.cpu.itb.stage2_mmu.stage2_tlb.write_accesses            0                       # DTB write accesses
system.cpu.itb.stage2_mmu.stage2_tlb.write_hits            0                       # DTB write hits
system.cpu.itb.stage2_mmu.stage2_tlb.write_misses            0                       # DTB write misses
system.cpu.itb.walker.walkRequestOrigin_Requested::Data            0                       # Table walker requests started/completed, data/inst
system.cpu.itb.walker.walkRequestOrigin_Requested::Inst            0                       # Table walker requests started/completed, data/inst
system.cpu.itb.walker.walkRequestOrigin_Requested::total            0                       # Table walker requests started/completed, data/inst
system.cpu.itb.walker.walkRequestOrigin_Completed::Data            0                       # Table walker requests started/completed, data/inst
system.cpu.itb.walker.walkRequestOrigin_Completed::Inst            0                       # Table walker requests started/completed, data/inst
system.cpu.itb.walker.walkRequestOrigin_Completed::total            0                       # Table walker requests started/completed, data/inst
system.cpu.itb.walker.walkRequestOrigin::total            0                       # Table walker requests started/completed, data/inst
system.cpu.itb.walker.walks                         0                       # Table walker walks requested
system.cpu.itb.write_accesses                       0                       # DTB write accesses
system.cpu.itb.write_hits                           0                       # DTB write hits
system.cpu.itb.write_misses                         0                       # DTB write misses
system.cpu.memDep0.conflictingLoads           2535165                       # Number of conflicting loads.
system.cpu.memDep0.conflictingStores           758441                       # Number of conflicting stores.
system.cpu.memDep0.insertedLoads             45922959                       # Number of loads inserted to the mem dependence unit.
system.cpu.memDep0.insertedStores            32367213                       # Number of stores inserted to the mem dependence unit.
system.cpu.misc_regfile_reads               192576593                       # number of misc regfile reads
system.cpu.misc_regfile_writes                 673445                       # number of misc regfile writes
system.cpu.numCycles                        150071265                       # number of cpu cycles simulated
system.cpu.numWorkItemsCompleted                    0                       # number of work items this cpu completed
system.cpu.numWorkItemsStarted                      0                       # number of work items this cpu started
system.cpu.rename.BlockCycles                 8016498                       # Number of cycles rename is blocking
system.cpu.rename.CommittedMaps             231201949                       # Number of HB maps that are committed
system.cpu.rename.IQFullEvents                 382092                       # Number of times rename has blocked due to IQ full
system.cpu.rename.IdleCycles                 66919953                       # Number of cycles rename is idle
system.cpu.rename.LQFullEvents                     43                       # Number of times rename has blocked due to LQ full
system.cpu.rename.RenameLookups            1033588813                       # Number of register rename lookups that rename has made
system.cpu.rename.RenamedInsts              231629554                       # Number of instructions processed by rename
system.cpu.rename.RenamedOperands           245115416                       # Number of destination operands rename has renamed
system.cpu.rename.RunCycles                  46198996                       # Number of cycles rename is running
system.cpu.rename.SQFullEvents                1824851                       # Number of times rename has blocked due to SQ full
system.cpu.rename.SquashCycles                 619913                       # Number of cycles rename is squashing
system.cpu.rename.UnblockCycles               2468671                       # Number of cycles rename is unblocking
system.cpu.rename.UndoneMaps                 13913437                       # Number of HB maps that are undone due to squashing
system.cpu.rename.int_rename_lookups        249844036                       # Number of integer rename lookups
system.cpu.rename.serializeStallCycles       22352127                       # count of cycles rename stalled for serializing inst
system.cpu.rename.serializingInsts             170030                       # count of serializing insts renamed
system.cpu.rename.skidInsts                   2620047                       # count of insts added to the skid buffer
system.cpu.rename.tempSerializingInsts         170152                       # count of temporary serializing insts renamed
system.cpu.rename.vec_rename_lookups               16                       # Number of vector rename lookups
system.cpu.rob.rob_reads                    362636047                       # The number of ROB reads
system.cpu.rob.rob_writes                   455833301                       # The number of ROB writes
system.cpu.timesIdled                         1026900                       # Number of times that the entire CPU went into an idle state and unscheduled itself
system.cpu.vec_regfile_reads                       16                       # number of vector regfile reads
system.cpu.workload.numSyscalls                   174                       # Number of system calls
system.membus.snoop_filter.hit_multi_requests            0                       # Number of requests hitting in the snoop filter with multiple (>1) holders of the requested data.
system.membus.snoop_filter.hit_multi_snoops            0                       # Number of snoops hitting in the snoop filter with multiple (>1) holders of the requested data.
system.membus.snoop_filter.hit_single_requests       154857                       # Number of requests hitting in the snoop filter with a single holder of the requested data.
system.membus.snoop_filter.hit_single_snoops            0                       # Number of snoops hitting in the snoop filter with a single holder of the requested data.
system.membus.snoop_filter.tot_requests        310930                       # Total number of requests made to the snoop filter.
system.membus.snoop_filter.tot_snoops               0                       # Total number of snoops made to the snoop filter.
system.tol2bus.snoop_filter.hit_multi_requests       172066                       # Number of requests hitting in the snoop filter with multiple (>1) holders of the requested data.
system.tol2bus.snoop_filter.hit_multi_snoops           67                       # Number of snoops hitting in the snoop filter with multiple (>1) holders of the requested data.
system.tol2bus.snoop_filter.hit_single_requests      1960424                       # Number of requests hitting in the snoop filter with a single holder of the requested data.
system.tol2bus.snoop_filter.hit_single_snoops         1173                       # Number of snoops hitting in the snoop filter with a single holder of the requested data.
system.tol2bus.snoop_filter.tot_requests      3921989                       # Total number of requests made to the snoop filter.
system.tol2bus.snoop_filter.tot_snoops           1240                       # Total number of snoops made to the snoop filter.
system.membus.trans_dist::ReadResp              63574                       # Transaction distribution
system.membus.trans_dist::WritebackDirty       146973                       # Transaction distribution
system.membus.trans_dist::CleanEvict             7819                       # Transaction distribution
system.membus.trans_dist::ReadExReq             92564                       # Transaction distribution
system.membus.trans_dist::ReadExResp            92564                       # Transaction distribution
system.membus.trans_dist::ReadSharedReq         63574                       # Transaction distribution
system.membus.pkt_count_system.l2.mem_side::system.mem_ctrls.port       467068                       # Packet count per connected master and slave (bytes)
system.membus.pkt_count::total                 467068                       # Packet count per connected master and slave (bytes)
system.membus.pkt_size_system.l2.mem_side::system.mem_ctrls.port     19399104                       # Cumulative packet size per connected master and slave (bytes)
system.membus.pkt_size::total                19399104                       # Cumulative packet size per connected master and slave (bytes)
system.membus.snoops                                0                       # Total snoops (count)
system.membus.snoopTraffic                          0                       # Total snoop traffic (bytes)
system.membus.snoop_fanout::samples            156138                       # Request fanout histogram
system.membus.snoop_fanout::mean                    0                       # Request fanout histogram
system.membus.snoop_fanout::stdev                   0                       # Request fanout histogram
system.membus.snoop_fanout::underflows              0      0.00%      0.00% # Request fanout histogram
system.membus.snoop_fanout::0                  156138    100.00%    100.00% # Request fanout histogram
system.membus.snoop_fanout::1                       0      0.00%    100.00% # Request fanout histogram
system.membus.snoop_fanout::overflows               0      0.00%    100.00% # Request fanout histogram
system.membus.snoop_fanout::min_value               0                       # Request fanout histogram
system.membus.snoop_fanout::max_value               0                       # Request fanout histogram
system.membus.snoop_fanout::total              156138                       # Request fanout histogram
system.membus.reqLayer0.occupancy           941204244                       # Layer occupancy (ticks)
system.membus.reqLayer0.utilization               1.3                       # Layer utilization (%)
system.membus.respLayer1.occupancy          837881499                       # Layer occupancy (ticks)
system.membus.respLayer1.utilization              1.1                       # Layer utilization (%)
system.membus.power_state.pwrStateResidencyTicks::UNDEFINED  75035564500                       # Cumulative time (in ticks) in various power states
system.tol2bus.trans_dist::ReadResp           1850054                       # Transaction distribution
system.tol2bus.trans_dist::WritebackDirty       337797                       # Transaction distribution
system.tol2bus.trans_dist::WritebackClean      1504116                       # Transaction distribution
system.tol2bus.trans_dist::CleanEvict          273920                       # Transaction distribution
system.tol2bus.trans_dist::ReadExReq           110542                       # Transaction distribution
system.tol2bus.trans_dist::ReadExResp          110542                       # Transaction distribution
system.tol2bus.trans_dist::ReadCleanReq       1504371                       # Transaction distribution
system.tol2bus.trans_dist::ReadSharedReq       345684                       # Transaction distribution
system.tol2bus.pkt_count_system.cpu.icache.mem_side::system.l2.cpu_side      4512857                       # Packet count per connected master and slave (bytes)
system.tol2bus.pkt_count_system.cpu.dcache.mem_side::system.l2.cpu_side      1368422                       # Packet count per connected master and slave (bytes)
system.tol2bus.pkt_count::total               5881279                       # Packet count per connected master and slave (bytes)
system.tol2bus.pkt_size_system.cpu.icache.mem_side::system.l2.cpu_side    192543104                       # Cumulative packet size per connected master and slave (bytes)
system.tol2bus.pkt_size_system.cpu.dcache.mem_side::system.l2.cpu_side     41411200                       # Cumulative packet size per connected master and slave (bytes)
system.tol2bus.pkt_size::total              233954304                       # Cumulative packet size per connected master and slave (bytes)
system.tol2bus.snoops                          155747                       # Total snoops (count)
system.tol2bus.snoopTraffic                   9406272                       # Total snoop traffic (bytes)
system.tol2bus.snoop_fanout::samples          2117334                       # Request fanout histogram
system.tol2bus.snoop_fanout::mean            0.081893                       # Request fanout histogram
system.tol2bus.snoop_fanout::stdev           0.274317                       # Request fanout histogram
system.tol2bus.snoop_fanout::underflows             0      0.00%      0.00% # Request fanout histogram
system.tol2bus.snoop_fanout::0                1944006     91.81%     91.81% # Request fanout histogram
system.tol2bus.snoop_fanout::1                 173261      8.18%    100.00% # Request fanout histogram
system.tol2bus.snoop_fanout::2                     67      0.00%    100.00% # Request fanout histogram
system.tol2bus.snoop_fanout::overflows              0      0.00%    100.00% # Request fanout histogram
system.tol2bus.snoop_fanout::min_value              0                       # Request fanout histogram
system.tol2bus.snoop_fanout::max_value              2                       # Request fanout histogram
system.tol2bus.snoop_fanout::total            2117334                       # Request fanout histogram
system.tol2bus.reqLayer0.occupancy         3656586194                       # Layer occupancy (ticks)
system.tol2bus.reqLayer0.utilization              4.9                       # Layer utilization (%)
system.tol2bus.respLayer1.occupancy         684339000                       # Layer occupancy (ticks)
system.tol2bus.respLayer1.utilization             0.9                       # Layer utilization (%)
system.tol2bus.respLayer0.occupancy        2256580449                       # Layer occupancy (ticks)
system.tol2bus.respLayer0.utilization             3.0                       # Layer utilization (%)
system.tol2bus.power_state.pwrStateResidencyTicks::UNDEFINED  75035564500                       # Cumulative time (in ticks) in various power states
system.voltage_domain.voltage                       1                       # Voltage in Volts
system.clk_domain.clock                          1000                       # Clock period in ticks
system.l2.demand_hits::.cpu.inst              1503602                       # number of demand (read+write) hits
system.l2.demand_hits::.cpu.data               300857                       # number of demand (read+write) hits
system.l2.demand_hits::total                  1804459                       # number of demand (read+write) hits
system.l2.overall_hits::.cpu.inst             1503602                       # number of overall hits
system.l2.overall_hits::.cpu.data              300857                       # number of overall hits
system.l2.overall_hits::total                 1804459                       # number of overall hits
system.l2.demand_misses::.cpu.inst                769                       # number of demand (read+write) misses
system.l2.demand_misses::.cpu.data             155369                       # number of demand (read+write) misses
system.l2.demand_misses::total                 156138                       # number of demand (read+write) misses
system.l2.overall_misses::.cpu.inst               769                       # number of overall misses
system.l2.overall_misses::.cpu.data            155369                       # number of overall misses
system.l2.overall_misses::total                156138                       # number of overall misses
system.l2.demand_miss_latency::.cpu.inst     61312344                       # number of demand (read+write) miss cycles
system.l2.demand_miss_latency::.cpu.data  12903334839                       # number of demand (read+write) miss cycles
system.l2.demand_miss_latency::total      12964647183                       # number of demand (read+write) miss cycles
system.l2.overall_miss_latency::.cpu.inst     61312344                       # number of overall miss cycles
system.l2.overall_miss_latency::.cpu.data  12903334839                       # number of overall miss cycles
system.l2.overall_miss_latency::total     12964647183                       # number of overall miss cycles
system.l2.demand_accesses::.cpu.inst          1504371                       # number of demand (read+write) accesses
system.l2.demand_accesses::.cpu.data           456226                       # number of demand (read+write) accesses
system.l2.demand_accesses::total              1960597                       # number of demand (read+write) accesses
system.l2.overall_accesses::.cpu.inst         1504371                       # number of overall (read+write) accesses
system.l2.overall_accesses::.cpu.data          456226                       # number of overall (read+write) accesses
system.l2.overall_accesses::total             1960597                       # number of overall (read+write) accesses
system.l2.demand_miss_rate::.cpu.inst        0.000511                       # miss rate for demand accesses
system.l2.demand_miss_rate::.cpu.data        0.340553                       # miss rate for demand accesses
system.l2.demand_miss_rate::total            0.079638                       # miss rate for demand accesses
system.l2.overall_miss_rate::.cpu.inst       0.000511                       # miss rate for overall accesses
system.l2.overall_miss_rate::.cpu.data       0.340553                       # miss rate for overall accesses
system.l2.overall_miss_rate::total           0.079638                       # miss rate for overall accesses
system.l2.demand_avg_miss_latency::.cpu.inst 79729.966190                       # average overall miss latency
system.l2.demand_avg_miss_latency::.cpu.data 83049.609890                       # average overall miss latency
system.l2.demand_avg_miss_latency::total 83033.260212                       # average overall miss latency
system.l2.overall_avg_miss_latency::.cpu.inst 79729.966190                       # average overall miss latency
system.l2.overall_avg_miss_latency::.cpu.data 83049.609890                       # average overall miss latency
system.l2.overall_avg_miss_latency::total 83033.260212                       # average overall miss latency
system.l2.blocked_cycles::no_mshrs           22806218                       # number of cycles access was blocked
system.l2.blocked_cycles::no_targets                0                       # number of cycles access was blocked
system.l2.blocked::no_mshrs                    156138                       # number of cycles access was blocked
system.l2.blocked::no_targets                       0                       # number of cycles access was blocked
system.l2.avg_blocked_cycles::no_mshrs     146.064494                       # average number of cycles each access was blocked
system.l2.avg_blocked_cycles::no_targets          nan                       # average number of cycles each access was blocked
system.l2.writebacks::.writebacks              146973                       # number of writebacks
system.l2.writebacks::total                    146973                       # number of writebacks
system.l2.demand_mshr_misses::.cpu.inst           769                       # number of demand (read+write) MSHR misses
system.l2.demand_mshr_misses::.cpu.data        155369                       # number of demand (read+write) MSHR misses
system.l2.demand_mshr_misses::total            156138                       # number of demand (read+write) MSHR misses
system.l2.overall_mshr_misses::.cpu.inst          769                       # number of overall MSHR misses
system.l2.overall_mshr_misses::.cpu.data       155369                       # number of overall MSHR misses
system.l2.overall_mshr_misses::total           156138                       # number of overall MSHR misses
system.l2.demand_mshr_miss_latency::.cpu.inst     53622344                       # number of demand (read+write) MSHR miss cycles
system.l2.demand_mshr_miss_latency::.cpu.data  11349644839                       # number of demand (read+write) MSHR miss cycles
system.l2.demand_mshr_miss_latency::total  11403267183                       # number of demand (read+write) MSHR miss cycles
system.l2.overall_mshr_miss_latency::.cpu.inst     53622344                       # number of overall MSHR miss cycles
system.l2.overall_mshr_miss_latency::.cpu.data  11349644839                       # number of overall MSHR miss cycles
system.l2.overall_mshr_miss_latency::total  11403267183                       # number of overall MSHR miss cycles
system.l2.demand_mshr_miss_rate::.cpu.inst     0.000511                       # mshr miss rate for demand accesses
system.l2.demand_mshr_miss_rate::.cpu.data     0.340553                       # mshr miss rate for demand accesses
system.l2.demand_mshr_miss_rate::total       0.079638                       # mshr miss rate for demand accesses
system.l2.overall_mshr_miss_rate::.cpu.inst     0.000511                       # mshr miss rate for overall accesses
system.l2.overall_mshr_miss_rate::.cpu.data     0.340553                       # mshr miss rate for overall accesses
system.l2.overall_mshr_miss_rate::total      0.079638                       # mshr miss rate for overall accesses
system.l2.demand_avg_mshr_miss_latency::.cpu.inst 69729.966190                       # average overall mshr miss latency
system.l2.demand_avg_mshr_miss_latency::.cpu.data 73049.609890                       # average overall mshr miss latency
system.l2.demand_avg_mshr_miss_latency::total 73033.260212                       # average overall mshr miss latency
system.l2.overall_avg_mshr_miss_latency::.cpu.inst 69729.966190                       # average overall mshr miss latency
system.l2.overall_avg_mshr_miss_latency::.cpu.data 73049.609890                       # average overall mshr miss latency
system.l2.overall_avg_mshr_miss_latency::total 73033.260212                       # average overall mshr miss latency
system.l2.replacements                         155747                       # number of replacements
system.l2.WritebackDirty_hits::.writebacks       190824                       # number of WritebackDirty hits
system.l2.WritebackDirty_hits::total           190824                       # number of WritebackDirty hits
system.l2.WritebackDirty_accesses::.writebacks       190824                       # number of WritebackDirty accesses(hits+misses)
system.l2.WritebackDirty_accesses::total       190824                       # number of WritebackDirty accesses(hits+misses)
system.l2.WritebackClean_hits::.writebacks      1419522                       # number of WritebackClean hits
system.l2.WritebackClean_hits::total          1419522                       # number of WritebackClean hits
system.l2.WritebackClean_accesses::.writebacks      1419522                       # number of WritebackClean accesses(hits+misses)
system.l2.WritebackClean_accesses::total      1419522                       # number of WritebackClean accesses(hits+misses)
system.l2.CleanEvict_mshr_misses::.writebacks          285                       # number of CleanEvict MSHR misses
system.l2.CleanEvict_mshr_misses::total           285                       # number of CleanEvict MSHR misses
system.l2.CleanEvict_mshr_miss_rate::.writebacks          inf                       # mshr miss rate for CleanEvict accesses
system.l2.CleanEvict_mshr_miss_rate::total          inf                       # mshr miss rate for CleanEvict accesses
system.l2.ReadExReq_hits::.cpu.data             17978                       # number of ReadExReq hits
system.l2.ReadExReq_hits::total                 17978                       # number of ReadExReq hits
system.l2.ReadExReq_misses::.cpu.data           92564                       # number of ReadExReq misses
system.l2.ReadExReq_misses::total               92564                       # number of ReadExReq misses
system.l2.ReadExReq_miss_latency::.cpu.data   7414676970                       # number of ReadExReq miss cycles
system.l2.ReadExReq_miss_latency::total    7414676970                       # number of ReadExReq miss cycles
system.l2.ReadExReq_accesses::.cpu.data        110542                       # number of ReadExReq accesses(hits+misses)
system.l2.ReadExReq_accesses::total            110542                       # number of ReadExReq accesses(hits+misses)
system.l2.ReadExReq_miss_rate::.cpu.data     0.837365                       # miss rate for ReadExReq accesses
system.l2.ReadExReq_miss_rate::total         0.837365                       # miss rate for ReadExReq accesses
system.l2.ReadExReq_avg_miss_latency::.cpu.data 80103.247159                       # average ReadExReq miss latency
system.l2.ReadExReq_avg_miss_latency::total 80103.247159                       # average ReadExReq miss latency
system.l2.ReadExReq_mshr_misses::.cpu.data        92564                       # number of ReadExReq MSHR misses
system.l2.ReadExReq_mshr_misses::total          92564                       # number of ReadExReq MSHR misses
system.l2.ReadExReq_mshr_miss_latency::.cpu.data   6489036970                       # number of ReadExReq MSHR miss cycles
system.l2.ReadExReq_mshr_miss_latency::total   6489036970                       # number of ReadExReq MSHR miss cycles
system.l2.ReadExReq_mshr_miss_rate::.cpu.data     0.837365                       # mshr miss rate for ReadExReq accesses
system.l2.ReadExReq_mshr_miss_rate::total     0.837365                       # mshr miss rate for ReadExReq accesses
system.l2.ReadExReq_avg_mshr_miss_latency::.cpu.data 70103.247159                       # average ReadExReq mshr miss latency
system.l2.ReadExReq_avg_mshr_miss_latency::total 70103.247159                       # average ReadExReq mshr miss latency
system.l2.ReadCleanReq_hits::.cpu.inst        1503602                       # number of ReadCleanReq hits
system.l2.ReadCleanReq_hits::total            1503602                       # number of ReadCleanReq hits
system.l2.ReadCleanReq_misses::.cpu.inst          769                       # number of ReadCleanReq misses
system.l2.ReadCleanReq_misses::total              769                       # number of ReadCleanReq misses
system.l2.ReadCleanReq_miss_latency::.cpu.inst     61312344                       # number of ReadCleanReq miss cycles
system.l2.ReadCleanReq_miss_latency::total     61312344                       # number of ReadCleanReq miss cycles
system.l2.ReadCleanReq_accesses::.cpu.inst      1504371                       # number of ReadCleanReq accesses(hits+misses)
system.l2.ReadCleanReq_accesses::total        1504371                       # number of ReadCleanReq accesses(hits+misses)
system.l2.ReadCleanReq_miss_rate::.cpu.inst     0.000511                       # miss rate for ReadCleanReq accesses
system.l2.ReadCleanReq_miss_rate::total      0.000511                       # miss rate for ReadCleanReq accesses
system.l2.ReadCleanReq_avg_miss_latency::.cpu.inst 79729.966190                       # average ReadCleanReq miss latency
system.l2.ReadCleanReq_avg_miss_latency::total 79729.966190                       # average ReadCleanReq miss latency
system.l2.ReadCleanReq_mshr_misses::.cpu.inst          769                       # number of ReadCleanReq MSHR misses
system.l2.ReadCleanReq_mshr_misses::total          769                       # number of ReadCleanReq MSHR misses
system.l2.ReadCleanReq_mshr_miss_latency::.cpu.inst     53622344                       # number of ReadCleanReq MSHR miss cycles
system.l2.ReadCleanReq_mshr_miss_latency::total     53622344                       # number of ReadCleanReq MSHR miss cycles
[...]
system.cpu.icache.overall_mshr_miss_rate::.cpu.inst     0.043731                       # mshr miss rate for overall accesses
system.cpu.icache.overall_mshr_miss_rate::total     0.043731                       # mshr miss rate for overall accesses
system.cpu.icache.demand_avg_mshr_miss_latency::.cpu.inst 12255.779939                       # average overall mshr miss latency
system.cpu.icache.demand_avg_mshr_miss_latency::total 12255.779939                       # average overall mshr miss latency
system.cpu.icache.overall_avg_mshr_miss_latency::.cpu.inst 12255.779939                       # average overall mshr miss latency
system.cpu.icache.overall_avg_mshr_miss_latency::total 12255.779939                       # average overall mshr miss latency
system.cpu.icache.replacements                1504116                       # number of replacements
system.cpu.icache.ReadReq_hits::.cpu.inst     32895918                       # number of ReadReq hits
system.cpu.icache.ReadReq_hits::total        32895918                       # number of ReadReq hits
system.cpu.icache.ReadReq_misses::.cpu.inst      1504371                       # number of ReadReq misses
system.cpu.icache.ReadReq_misses::total       1504371                       # number of ReadReq misses
system.cpu.icache.ReadReq_miss_latency::.cpu.inst  19941609922                       # number of ReadReq miss cycles
system.cpu.icache.ReadReq_miss_latency::total  19941609922                       # number of ReadReq miss cycles
system.cpu.icache.ReadReq_accesses::.cpu.inst     34400289                       # number of ReadReq accesses(hits+misses)
system.cpu.icache.ReadReq_accesses::total     34400289                       # number of ReadReq accesses(hits+misses)
system.cpu.icache.ReadReq_miss_rate::.cpu.inst     0.043731                       # miss rate for ReadReq accesses
system.cpu.icache.ReadReq_miss_rate::total     0.043731                       # miss rate for ReadReq accesses
system.cpu.icache.ReadReq_avg_miss_latency::.cpu.inst 13255.779274                       # average ReadReq miss latency
system.cpu.icache.ReadReq_avg_miss_latency::total 13255.779274                       # average ReadReq miss latency
system.cpu.icache.ReadReq_mshr_misses::.cpu.inst      1504371                       # number of ReadReq MSHR misses
system.cpu.icache.ReadReq_mshr_misses::total      1504371                       # number of ReadReq MSHR misses
system.cpu.icache.ReadReq_mshr_miss_latency::.cpu.inst  18437239922                       # number of ReadReq MSHR miss cycles
system.cpu.icache.ReadReq_mshr_miss_latency::total  18437239922                       # number of ReadReq MSHR miss cycles
system.cpu.icache.ReadReq_mshr_miss_rate::.cpu.inst     0.043731                       # mshr miss rate for ReadReq accesses
system.cpu.icache.ReadReq_mshr_miss_rate::total     0.043731                       # mshr miss rate for ReadReq accesses
system.cpu.icache.ReadReq_avg_mshr_miss_latency::.cpu.inst 12255.779939                       # average ReadReq mshr miss latency
system.cpu.icache.ReadReq_avg_mshr_miss_latency::total 12255.779939                       # average ReadReq mshr miss latency
system.cpu.icache.power_state.pwrStateResidencyTicks::UNDEFINED  75035564500                       # Cumulative time (in ticks) in various power states
system.cpu.icache.tags.tagsinuse           253.933544                       # Cycle average of tags in use
system.cpu.icache.tags.total_refs             7160624                       # Total number of references to valid blocks.
system.cpu.icache.tags.sampled_refs           1504116                       # Sample count of references to valid blocks.
system.cpu.icache.tags.avg_refs              4.760686                       # Average number of references to valid blocks.
system.cpu.icache.tags.warmup_cycle             87500                       # Cycle when the warmup percentage was hit.
system.cpu.icache.tags.occ_blocks::.cpu.inst   253.933544                       # Average occupied blocks per requestor
system.cpu.icache.tags.occ_percent::.cpu.inst     0.991928                       # Average percentage of cache occupancy
system.cpu.icache.tags.occ_percent::total     0.991928                       # Average percentage of cache occupancy
system.cpu.icache.tags.occ_task_id_blocks::1024          254                       # Occupied blocks per task id
system.cpu.icache.tags.age_task_id_blocks_1024::0           14                       # Occupied blocks per task id
system.cpu.icache.tags.age_task_id_blocks_1024::2            2                       # Occupied blocks per task id
system.cpu.icache.tags.age_task_id_blocks_1024::3            1                       # Occupied blocks per task id
system.cpu.icache.tags.age_task_id_blocks_1024::4          237                       # Occupied blocks per task id
system.cpu.icache.tags.occ_task_id_percent::1024     0.992188                       # Percentage of cache occupancy per task id
system.cpu.icache.tags.tag_accesses          70304948                       # Number of tag accesses
system.cpu.icache.tags.data_accesses         70304948                       # Number of data accesses
system.cpu.icache.tags.power_state.pwrStateResidencyTicks::UNDEFINED  75035564500                       # Cumulative time (in ticks) in various power states
system.cpu.dtb.walker.power_state.pwrStateResidencyTicks::UNDEFINED  75035564500                       # Cumulative time (in ticks) in various power states
system.cpu.dtb.stage2_mmu.stage2_tlb.walker.power_state.pwrStateResidencyTicks::UNDEFINED  75035564500                       # Cumulative time (in ticks) in various power states
system.cpu.itb.walker.power_state.pwrStateResidencyTicks::UNDEFINED  75035564500                       # Cumulative time (in ticks) in various power states
system.cpu.itb.stage2_mmu.stage2_tlb.walker.power_state.pwrStateResidencyTicks::UNDEFINED  75035564500                       # Cumulative time (in ticks) in various power states
system.cpu.dcache.demand_hits::.cpu.data     67442447                       # number of demand (read+write) hits
system.cpu.dcache.demand_hits::total         67442447                       # number of demand (read+write) hits
system.cpu.dcache.overall_hits::.cpu.data     67442447                       # number of overall hits
system.cpu.dcache.overall_hits::total        67442447                       # number of overall hits
system.cpu.dcache.demand_misses::.cpu.data       456226                       # number of demand (read+write) misses
system.cpu.dcache.demand_misses::total         456226                       # number of demand (read+write) misses
system.cpu.dcache.overall_misses::.cpu.data       456226                       # number of overall misses
system.cpu.dcache.overall_misses::total        456226                       # number of overall misses
system.cpu.dcache.demand_miss_latency::.cpu.data  17403530233                       # number of demand (read+write) miss cycles
system.cpu.dcache.demand_miss_latency::total  17403530233                       # number of demand (read+write) miss cycles
system.cpu.dcache.overall_miss_latency::.cpu.data  17403530233                       # number of overall miss cycles
system.cpu.dcache.overall_miss_latency::total  17403530233                       # number of overall miss cycles
system.cpu.dcache.demand_accesses::.cpu.data     67898673                       # number of demand (read+write) accesses
system.cpu.dcache.demand_accesses::total     67898673                       # number of demand (read+write) accesses
system.cpu.dcache.overall_accesses::.cpu.data     67898673                       # number of overall (read+write) accesses
system.cpu.dcache.overall_accesses::total     67898673                       # number of overall (read+write) accesses
system.cpu.dcache.demand_miss_rate::.cpu.data     0.006719                       # miss rate for demand accesses
system.cpu.dcache.demand_miss_rate::total     0.006719                       # miss rate for demand accesses
system.cpu.dcache.overall_miss_rate::.cpu.data     0.006719                       # miss rate for overall accesses
system.cpu.dcache.overall_miss_rate::total     0.006719                       # miss rate for overall accesses
system.cpu.dcache.demand_avg_miss_latency::.cpu.data 38146.730421                       # average overall miss latency
system.cpu.dcache.demand_avg_miss_latency::total 38146.730421                       # average overall miss latency
system.cpu.dcache.overall_avg_miss_latency::.cpu.data 38146.730421                       # average overall miss latency
system.cpu.dcache.overall_avg_miss_latency::total 38146.730421                       # average overall miss latency
system.cpu.dcache.blocked_cycles::no_mshrs     33892845                       # number of cycles access was blocked
system.cpu.dcache.blocked_cycles::no_targets            0                       # number of cycles access was blocked
system.cpu.dcache.blocked::no_mshrs            456226                       # number of cycles access was blocked
system.cpu.dcache.blocked::no_targets               0                       # number of cycles access was blocked
system.cpu.dcache.avg_blocked_cycles::no_mshrs    74.289596                       # average number of cycles each access was blocked
system.cpu.dcache.avg_blocked_cycles::no_targets          nan                       # average number of cycles each access was blocked
system.cpu.dcache.writebacks::.writebacks       190824                       # number of writebacks
system.cpu.dcache.writebacks::total            190824                       # number of writebacks
system.cpu.dcache.demand_mshr_misses::.cpu.data       456226                       # number of demand (read+write) MSHR misses
system.cpu.dcache.demand_mshr_misses::total       456226                       # number of demand (read+write) MSHR misses
system.cpu.dcache.overall_mshr_misses::.cpu.data       456226                       # number of overall MSHR misses
system.cpu.dcache.overall_mshr_misses::total       456226                       # number of overall MSHR misses
system.cpu.dcache.demand_mshr_miss_latency::.cpu.data  16947304233                       # number of demand (read+write) MSHR miss cycles
system.cpu.dcache.demand_mshr_miss_latency::total  16947304233                       # number of demand (read+write) MSHR miss cycles
system.cpu.dcache.overall_mshr_miss_latency::.cpu.data  16947304233                       # number of overall MSHR miss cycles
system.cpu.dcache.overall_mshr_miss_latency::total  16947304233                       # number of overall MSHR miss cycles
system.cpu.dcache.demand_mshr_miss_rate::.cpu.data     0.006719                       # mshr miss rate for demand accesses
system.cpu.dcache.demand_mshr_miss_rate::total     0.006719                       # mshr miss rate for demand accesses
system.cpu.dcache.overall_mshr_miss_rate::.cpu.data     0.006719                       # mshr miss rate for overall accesses
system.cpu.dcache.overall_mshr_miss_rate::total     0.006719                       # mshr miss rate for overall accesses
system.cpu.dcache.demand_avg_mshr_miss_latency::.cpu.data 37146.730421                       # average overall mshr miss latency
system.cpu.dcache.demand_avg_mshr_miss_latency::total 37146.730421                       # average overall mshr miss latency
system.cpu.dcache.overall_avg_mshr_miss_latency::.cpu.data 37146.730421                       # average overall mshr miss latency
system.cpu.dcache.overall_avg_mshr_miss_latency::total 37146.730421                       # average overall mshr miss latency
system.cpu.dcache.replacements                 455970                       # number of replacements
system.cpu.dcache.ReadReq_hits::.cpu.data     40363409                       # number of ReadReq hits
system.cpu.dcache.ReadReq_hits::total        40363409                       # number of ReadReq hits
system.cpu.dcache.ReadReq_misses::.cpu.data       345684                       # number of ReadReq misses
system.cpu.dcache.ReadReq_misses::total        345684                       # number of ReadReq misses
system.cpu.dcache.ReadReq_miss_latency::.cpu.data   9484055000                       # number of ReadReq miss cycles
system.cpu.dcache.ReadReq_miss_latency::total   9484055000                       # number of ReadReq miss cycles
system.cpu.dcache.ReadReq_accesses::.cpu.data     40709093                       # number of ReadReq accesses(hits+misses)
system.cpu.dcache.ReadReq_accesses::total     40709093                       # number of ReadReq accesses(hits+misses)
system.cpu.dcache.ReadReq_miss_rate::.cpu.data     0.008492                       # miss rate for ReadReq accesses
system.cpu.dcache.ReadReq_miss_rate::total     0.008492                       # miss rate for ReadReq accesses
system.cpu.dcache.ReadReq_avg_miss_latency::.cpu.data 27435.620393                       # average ReadReq miss latency
system.cpu.dcache.ReadReq_avg_miss_latency::total 27435.620393                       # average ReadReq miss latency
system.cpu.dcache.ReadReq_mshr_misses::.cpu.data       345684                       # number of ReadReq MSHR misses
system.cpu.dcache.ReadReq_mshr_misses::total       345684                       # number of ReadReq MSHR misses
system.cpu.dcache.ReadReq_mshr_miss_latency::.cpu.data   9138371000                       # number of ReadReq MSHR miss cycles
system.cpu.dcache.ReadReq_mshr_miss_latency::total   9138371000                       # number of ReadReq MSHR miss cycles
system.cpu.dcache.ReadReq_mshr_miss_rate::.cpu.data     0.008492                       # mshr miss rate for ReadReq accesses
system.cpu.dcache.ReadReq_mshr_miss_rate::total     0.008492                       # mshr miss rate for ReadReq accesses
system.cpu.dcache.ReadReq_avg_mshr_miss_latency::.cpu.data 26435.620393                       # average ReadReq mshr miss latency
system.cpu.dcache.ReadReq_avg_mshr_miss_latency::total 26435.620393                       # average ReadReq mshr miss latency
system.cpu.dcache.WriteReq_hits::.cpu.data     27079038                       # number of WriteReq hits
system.cpu.dcache.WriteReq_hits::total       27079038                       # number of WriteReq hits
system.cpu.dcache.WriteReq_misses::.cpu.data       110542                       # number of WriteReq misses
system.cpu.dcache.WriteReq_misses::total       110542                       # number of WriteReq misses
system.cpu.dcache.WriteReq_miss_latency::.cpu.data   7919475233                       # number of WriteReq miss cycles
system.cpu.dcache.WriteReq_miss_latency::total   7919475233                       # number of WriteReq miss cycles
system.cpu.dcache.WriteReq_accesses::.cpu.data     27189580                       # number of WriteReq accesses(hits+misses)
system.cpu.dcache.WriteReq_accesses::total     27189580                       # number of WriteReq accesses(hits+misses)
system.cpu.dcache.WriteReq_miss_rate::.cpu.data     0.004066                       # miss rate for WriteReq accesses
system.cpu.dcache.WriteReq_miss_rate::total     0.004066                       # miss rate for WriteReq accesses
system.cpu.dcache.WriteReq_avg_miss_latency::.cpu.data 71642.228592                       # average WriteReq miss latency
system.cpu.dcache.WriteReq_avg_miss_latency::total 71642.228592                       # average WriteReq miss latency
system.cpu.dcache.WriteReq_mshr_misses::.cpu.data       110542                       # number of WriteReq MSHR misses
system.cpu.dcache.WriteReq_mshr_misses::total       110542                       # number of WriteReq MSHR misses
system.cpu.dcache.WriteReq_mshr_miss_latency::.cpu.data   7808933233                       # number of WriteReq MSHR miss cycles
system.cpu.dcache.WriteReq_mshr_miss_latency::total   7808933233                       # number of WriteReq MSHR miss cycles
system.cpu.dcache.WriteReq_mshr_miss_rate::.cpu.data     0.004066                       # mshr miss rate for WriteReq accesses
system.cpu.dcache.WriteReq_mshr_miss_rate::total     0.004066                       # mshr miss rate for WriteReq accesses
system.cpu.dcache.WriteReq_avg_mshr_miss_latency::.cpu.data 70642.228592                       # average WriteReq mshr miss latency
system.cpu.dcache.WriteReq_avg_mshr_miss_latency::total 70642.228592                       # average WriteReq mshr miss latency
system.cpu.dcache.LoadLockedReq_hits::.cpu.data       169220                       # number of LoadLockedReq hits
system.cpu.dcache.LoadLockedReq_hits::total       169220                       # number of LoadLockedReq hits
system.cpu.dcache.LoadLockedReq_accesses::.cpu.data       169220                       # number of LoadLockedReq accesses(hits+misses)
system.cpu.dcache.LoadLockedReq_accesses::total       169220                       # number of LoadLockedReq accesses(hits+misses)
system.cpu.dcache.StoreCondReq_hits::.cpu.data       168361                       # number of StoreCondReq hits
system.cpu.dcache.StoreCondReq_hits::total       168361                       # number of StoreCondReq hits
system.cpu.dcache.StoreCondReq_accesses::.cpu.data       168361                       # number of StoreCondReq accesses(hits+misses)
system.cpu.dcache.StoreCondReq_accesses::total       168361                       # number of StoreCondReq accesses(hits+misses)
system.cpu.dcache.power_state.pwrStateResidencyTicks::UNDEFINED  75035564500                       # Cumulative time (in ticks) in various power states
system.cpu.dcache.tags.tagsinuse           255.844036                       # Cycle average of tags in use
system.cpu.dcache.tags.total_refs            66483068                       # Total number of references to valid blocks.
system.cpu.dcache.tags.sampled_refs            455970                       # Sample count of references to valid blocks.
system.cpu.dcache.tags.avg_refs            145.805794                       # Average number of references to valid blocks.
system.cpu.dcache.tags.warmup_cycle            251500                       # Cycle when the warmup percentage was hit.
system.cpu.dcache.tags.occ_blocks::.cpu.data   255.844036                       # Average occupied blocks per requestor
system.cpu.dcache.tags.occ_percent::.cpu.data     0.999391                       # Average percentage of cache occupancy
system.cpu.dcache.tags.occ_percent::total     0.999391                       # Average percentage of cache occupancy
system.cpu.dcache.tags.occ_task_id_blocks::1024          256                       # Occupied blocks per task id
system.cpu.dcache.tags.age_task_id_blocks_1024::0           24                       # Occupied blocks per task id
system.cpu.dcache.tags.age_task_id_blocks_1024::1          118                       # Occupied blocks per task id
system.cpu.dcache.tags.age_task_id_blocks_1024::2           95                       # Occupied blocks per task id
system.cpu.dcache.tags.age_task_id_blocks_1024::3           16                       # Occupied blocks per task id
system.cpu.dcache.tags.age_task_id_blocks_1024::4            3                       # Occupied blocks per task id
system.cpu.dcache.tags.occ_task_id_percent::1024            1                       # Percentage of cache occupancy per task id
system.cpu.dcache.tags.tag_accesses         136928734                       # Number of tag accesses
system.cpu.dcache.tags.data_accesses        136928734                       # Number of data accesses
system.cpu.dcache.tags.power_state.pwrStateResidencyTicks::UNDEFINED  75035564500                       # Cumulative time (in ticks) in various power states
system.cpu.power_state.pwrStateResidencyTicks::ON  75035564500                       # Cumulative time (in ticks) in various power states

---------- End Simulation Statistics   ----------
