
---------- Begin Simulation Statistics ----------
final_tick                               1773065631500                       # Number of ticks from beginning of simulation (restored from checkpoints and never reset)
host_inst_rate                                 215456                       # Simulator instruction rate (inst/s)
host_mem_usage                                4742312                       # Number of bytes of host memory used
host_op_rate                                   445131                       # Simulator op (including micro ops) rate (op/s)
host_seconds                                  6961.99                       # Real time elapsed on the host
host_tick_rate                               84775639                       # Simulator tick rate (ticks/s)
sim_freq                                 1000000000000                       # Frequency of simulated ticks
sim_insts                                  1500000001                       # Number of instructions simulated
sim_ops                                    3099000494                       # Number of ops (including micro ops) simulated
sim_seconds                                  0.590207                       # Number of seconds simulated
sim_ticks                                590207088500                       # Number of ticks simulated
system.cpu.committedInsts                           0                       # Number of instructions committed
system.cpu.committedOps                             0                       # Number of ops (including micro ops) committed
system.cpu.dtb.rdAccesses                           0                       # TLB accesses on read requests
system.cpu.dtb.rdMisses                             0                       # TLB misses on read requests
system.cpu.dtb.wrAccesses                           0                       # TLB accesses on write requests
system.cpu.dtb.wrMisses                             0                       # TLB misses on write requests
system.cpu.idle_fraction                            0                       # Percentage of idle cycles
system.cpu.itb.rdAccesses                           0                       # TLB accesses on read requests
system.cpu.itb.rdMisses                             0                       # TLB misses on read requests
system.cpu.itb.wrAccesses                           0                       # TLB accesses on write requests
system.cpu.itb.wrMisses                             0                       # TLB misses on write requests
system.cpu.not_idle_fraction                        1                       # Percentage of non-idle cycles
system.cpu.numCycles                                0                       # number of cpu cycles simulated
system.cpu.numWorkItemsCompleted                    0                       # number of work items this cpu completed
system.cpu.numWorkItemsStarted                      0                       # number of work items this cpu started
system.cpu.num_busy_cycles                          0                       # Number of busy cycles
system.cpu.num_conditional_control_insts            0                       # number of instructions that are conditional controls
system.cpu.num_fp_alu_accesses                      0                       # Number of float alu accesses
system.cpu.num_fp_insts                             0                       # number of float instructions
system.cpu.num_fp_register_reads                    0                       # number of times the floating registers were read
system.cpu.num_fp_register_writes                   0                       # number of times the floating registers were written
system.cpu.num_func_calls                           0                       # number of times a function call or return occured
system.cpu.num_idle_cycles                          0                       # Number of idle cycles
system.cpu.num_int_alu_accesses                     0                       # Number of integer alu accesses
system.cpu.num_int_insts                            0                       # number of integer instructions
system.cpu.num_int_register_reads                   0                       # number of times the integer registers were read
system.cpu.num_int_register_writes                  0                       # number of times the integer registers were written
system.cpu.num_load_insts                           0                       # Number of load instructions
system.cpu.num_mem_refs                             0                       # number of memory refs
system.cpu.num_store_insts                          0                       # Number of store instructions
system.cpu.num_vec_alu_accesses                     0                       # Number of vector alu accesses
system.cpu.num_vec_insts                            0                       # number of vector instructions
system.cpu.num_vec_register_reads                   0                       # number of times the vector registers were read
system.cpu.num_vec_register_writes                  0                       # number of times the vector registers were written
system.cpu.op_class::No_OpClass                     0                       # Class of executed instruction
system.cpu.op_class::IntAlu                         0                       # Class of executed instruction
system.cpu.op_class::IntMult                        0                       # Class of executed instruction
system.cpu.op_class::IntDiv                         0                       # Class of executed instruction
system.cpu.op_class::FloatAdd                       0                       # Class of executed instruction
system.cpu.op_class::FloatCmp                       0                       # Class of executed instruction
system.cpu.op_class::FloatCvt                       0                       # Class of executed instruction
system.cpu.op_class::FloatMult                      0                       # Class of executed instruction
system.cpu.op_class::FloatMultAcc                   0                       # Class of executed instruction
system.cpu.op_class::FloatDiv                       0                       # Class of executed instruction
system.cpu.op_class::FloatMisc                      0                       # Class of executed instruction
system.cpu.op_class::FloatSqrt                      0                       # Class of executed instruction
system.cpu.op_class::SimdAdd                        0                       # Class of executed instruction
system.cpu.op_class::SimdAddAcc                     0                       # Class of executed instruction
system.cpu.op_class::SimdAlu                        0                       # Class of executed instruction
system.cpu.op_class::SimdCmp                        0                       # Class of executed instruction
system.cpu.op_class::SimdCvt                        0                       # Class of executed instruction
system.cpu.op_class::SimdMisc                       0                       # Class of executed instruction
system.cpu.op_class::SimdMult                       0                       # Class of executed instruction
system.cpu.op_class::SimdMultAcc                    0                       # Class of executed instruction
system.cpu.op_class::SimdShift                      0                       # Class of executed instruction
system.cpu.op_class::SimdShiftAcc                   0                       # Class of executed instruction
system.cpu.op_class::SimdDiv                        0                       # Class of executed instruction
system.cpu.op_class::SimdSqrt                       0                       # Class of executed instruction
system.cpu.op_class::SimdFloatAdd                   0                       # Class of executed instruction
system.cpu.op_class::SimdFloatAlu                   0                       # Class of executed instruction
system.cpu.op_class::SimdFloatCmp                   0                       # Class of executed instruction
system.cpu.op_class::SimdFloatCvt                   0                       # Class of executed instruction
system.cpu.op_class::SimdFloatDiv                   0                       # Class of executed instruction
system.cpu.op_class::SimdFloatMisc                  0                       # Class of executed instruction
system.cpu.op_class::SimdFloatMult                  0                       # Class of executed instruction
system.cpu.op_class::SimdFloatMultAcc               0                       # Class of executed instruction
system.cpu.op_class::SimdFloatSqrt                  0                       # Class of executed instruction
system.cpu.op_class::SimdReduceAdd                  0                       # Class of executed instruction
system.cpu.op_class::SimdReduceAlu                  0                       # Class of executed instruction
system.cpu.op_class::SimdReduceCmp                  0                       # Class of executed instruction
system.cpu.op_class::SimdFloatReduceAdd             0                       # Class of executed instruction
system.cpu.op_class::SimdFloatReduceCmp             0                       # Class of executed instruction
system.cpu.op_class::SimdAes                        0                       # Class of executed instruction
system.cpu.op_class::SimdAesMix                     0                       # Class of executed instruction
system.cpu.op_class::SimdSha1Hash                   0                       # Class of executed instruction
system.cpu.op_class::SimdSha1Hash2                  0                       # Class of executed instruction
system.cpu.op_class::SimdSha256Hash                 0                       # Class of executed instruction
system.cpu.op_class::SimdSha256Hash2                0                       # Class of executed instruction
system.cpu.op_class::SimdShaSigma2                  0                       # Class of executed instruction
system.cpu.op_class::SimdShaSigma3                  0                       # Class of executed instruction
system.cpu.op_class::SimdPredAlu                    0                       # Class of executed instruction
system.cpu.op_class::MemRead                        0                       # Class of executed instruction
system.cpu.op_class::MemWrite                       0                       # Class of executed instruction
system.cpu.op_class::FloatMemRead                   0                       # Class of executed instruction
system.cpu.op_class::FloatMemWrite                  0                       # Class of executed instruction
system.cpu.op_class::IprAccess                      0                       # Class of executed instruction
system.cpu.op_class::InstPrefetch                   0                       # Class of executed instruction
system.cpu.op_class::total                          0                       # Class of executed instruction
system.cpu.workload.numSyscalls                   110                       # Number of system calls
system.membus.snoop_filter.hit_multi_requests            0                       # Number of requests hitting in the snoop filter with multiple (>1) holders of the requested data.
system.membus.snoop_filter.hit_multi_snoops            0                       # Number of snoops hitting in the snoop filter with multiple (>1) holders of the requested data.
system.membus.snoop_filter.hit_single_requests      4240668                       # Number of requests hitting in the snoop filter with a single holder of the requested data.
system.membus.snoop_filter.hit_single_snoops            0                       # Number of snoops hitting in the snoop filter with a single holder of the requested data.
system.membus.snoop_filter.tot_requests       8475853                       # Total number of requests made to the snoop filter.
system.membus.snoop_filter.tot_snoops               0                       # Total number of snoops made to the snoop filter.
system.switch_cpus.branchPred.BTBCorrect            0                       # Number of correct BTB predictions (this stat may not work properly.
system.switch_cpus.branchPred.BTBHitPct      0.000000                       # BTB Hit Percentage
system.switch_cpus.branchPred.BTBHits               0                       # Number of BTB hits
system.switch_cpus.branchPred.BTBLookups    215840001                       # Number of BTB lookups
system.switch_cpus.branchPred.RASInCorrect       346331                       # Number of incorrect RAS predictions.
system.switch_cpus.branchPred.condIncorrect     28252042                       # Number of conditional branches incorrect
system.switch_cpus.branchPred.condPredicted    183466068                       # Number of conditional branches predicted
system.switch_cpus.branchPred.indirectHits     44950804                       # Number of indirect target hits.
system.switch_cpus.branchPred.indirectLookups    215840001                       # Number of indirect predictor lookups.
system.switch_cpus.branchPred.indirectMisses    170889197                       # Number of indirect misses.
system.switch_cpus.branchPred.lookups       242705027                       # Number of BP lookups
system.switch_cpus.branchPred.usedRAS        22781088                       # Number of times the RAS was used to get a target.
system.switch_cpus.branchPredindirectMispredicted     26528448                       # Number of mispredicted indirect branches.
system.switch_cpus.cc_regfile_reads         556777055                       # number of cc regfile reads
system.switch_cpus.cc_regfile_writes        319601072                       # number of cc regfile writes
system.switch_cpus.commit.amos                      0                       # Number of atomic instructions committed
system.switch_cpus.commit.branchMispredicts     28313500                       # The number of times a branch was mispredicted
system.switch_cpus.commit.branches          112614160                       # Number of branches committed
system.switch_cpus.commit.bw_lim_events      51933720                       # number cycles where commit BW limit reached
system.switch_cpus.commit.commitNonSpecStalls         9622                       # The number of times commit has been forced to stall to communicate backwards
system.switch_cpus.commit.commitSquashedInsts    669797064                       # The number of squashed insts skipped by commit
system.switch_cpus.commit.committedInsts    500000001                       # Number of instructions committed
system.switch_cpus.commit.committedOps     1032584852                       # Number of ops (including micro ops) committed
system.switch_cpus.commit.committed_per_cycle::samples    847136657                       # Number of insts commited each cycle
system.switch_cpus.commit.committed_per_cycle::mean     1.218912                       # Number of insts commited each cycle
system.switch_cpus.commit.committed_per_cycle::stdev     2.259816                       # Number of insts commited each cycle
system.switch_cpus.commit.committed_per_cycle::underflows            0      0.00%      0.00% # Number of insts commited each cycle
system.switch_cpus.commit.committed_per_cycle::0    568456675     67.10%     67.10% # Number of insts commited each cycle
system.switch_cpus.commit.committed_per_cycle::1     64947845      7.67%     74.77% # Number of insts commited each cycle
system.switch_cpus.commit.committed_per_cycle::2     44361099      5.24%     80.01% # Number of insts commited each cycle
system.switch_cpus.commit.committed_per_cycle::3     64183280      7.58%     87.58% # Number of insts commited each cycle
system.switch_cpus.commit.committed_per_cycle::4     21800679      2.57%     90.16% # Number of insts commited each cycle
system.switch_cpus.commit.committed_per_cycle::5     12594736      1.49%     91.64% # Number of insts commited each cycle
system.switch_cpus.commit.committed_per_cycle::6     11291549      1.33%     92.98% # Number of insts commited each cycle
system.switch_cpus.commit.committed_per_cycle::7      7567074      0.89%     93.87% # Number of insts commited each cycle
system.switch_cpus.commit.committed_per_cycle::8     51933720      6.13%    100.00% # Number of insts commited each cycle
system.switch_cpus.commit.committed_per_cycle::overflows            0      0.00%    100.00% # Number of insts commited each cycle
system.switch_cpus.commit.committed_per_cycle::min_value            0                       # Number of insts commited each cycle
system.switch_cpus.commit.committed_per_cycle::max_value            8                       # Number of insts commited each cycle
system.switch_cpus.commit.committed_per_cycle::total    847136657                       # Number of insts commited each cycle
system.switch_cpus.commit.fp_insts            3726123                       # Number of committed floating point instructions.
system.switch_cpus.commit.function_calls     12807155                       # Number of function calls committed.
system.switch_cpus.commit.int_insts        1028681826                       # Number of committed integer instructions.
system.switch_cpus.commit.loads             149680731                       # Number of loads committed
system.switch_cpus.commit.membars                5990                       # Number of memory barriers committed
system.switch_cpus.commit.op_class_0::No_OpClass      2213209      0.21%      0.21% # Class of committed instruction
system.switch_cpus.commit.op_class_0::IntAlu    787286319     76.24%     76.46% # Class of committed instruction
system.switch_cpus.commit.op_class_0::IntMult       993444      0.10%     76.55% # Class of committed instruction
system.switch_cpus.commit.op_class_0::IntDiv      2146902      0.21%     76.76% # Class of committed instruction
system.switch_cpus.commit.op_class_0::FloatAdd       126851      0.01%     76.77% # Class of committed instruction
system.switch_cpus.commit.op_class_0::FloatCmp            0      0.00%     76.77% # Class of committed instruction
system.switch_cpus.commit.op_class_0::FloatCvt            0      0.00%     76.77% # Class of committed instruction
system.switch_cpus.commit.op_class_0::FloatMult            0      0.00%     76.77% # Class of committed instruction
system.switch_cpus.commit.op_class_0::FloatMultAcc            0      0.00%     76.77% # Class of committed instruction
system.switch_cpus.commit.op_class_0::FloatDiv            0      0.00%     76.77% # Class of committed instruction
system.switch_cpus.commit.op_class_0::FloatMisc            0      0.00%     76.77% # Class of committed instruction
system.switch_cpus.commit.op_class_0::FloatSqrt            0      0.00%     76.77% # Class of committed instruction
system.switch_cpus.commit.op_class_0::SimdAdd         6150      0.00%     76.78% # Class of committed instruction
system.switch_cpus.commit.op_class_0::SimdAddAcc            0      0.00%     76.78% # Class of committed instruction
system.switch_cpus.commit.op_class_0::SimdAlu       297938      0.03%     76.80% # Class of committed instruction
system.switch_cpus.commit.op_class_0::SimdCmp            0      0.00%     76.80% # Class of committed instruction
system.switch_cpus.commit.op_class_0::SimdCvt        96022      0.01%     76.81% # Class of committed instruction
system.switch_cpus.commit.op_class_0::SimdMisc       977705      0.09%     76.91% # Class of committed instruction
system.switch_cpus.commit.op_class_0::SimdMult            0      0.00%     76.91% # Class of committed instruction
system.switch_cpus.commit.op_class_0::SimdMultAcc            0      0.00%     76.91% # Class of committed instruction
system.switch_cpus.commit.op_class_0::SimdShift         8988      0.00%     76.91% # Class of committed instruction
system.switch_cpus.commit.op_class_0::SimdShiftAcc            0      0.00%     76.91% # Class of committed instruction
system.switch_cpus.commit.op_class_0::SimdDiv            0      0.00%     76.91% # Class of committed instruction
system.switch_cpus.commit.op_class_0::SimdSqrt            0      0.00%     76.91% # Class of committed instruction
system.switch_cpus.commit.op_class_0::SimdFloatAdd            0      0.00%     76.91% # Class of committed instruction
system.switch_cpus.commit.op_class_0::SimdFloatAlu            0      0.00%     76.91% # Class of committed instruction
system.switch_cpus.commit.op_class_0::SimdFloatCmp            0      0.00%     76.91% # Class of committed instruction
system.switch_cpus.commit.op_class_0::SimdFloatCvt            0      0.00%     76.91% # Class of committed instruction
system.switch_cpus.commit.op_class_0::SimdFloatDiv            0      0.00%     76.91% # Class of committed instruction
system.switch_cpus.commit.op_class_0::SimdFloatMisc            0      0.00%     76.91% # Class of committed instruction
system.switch_cpus.commit.op_class_0::SimdFloatMult            0      0.00%     76.91% # Class of committed instruction
system.switch_cpus.commit.op_class_0::SimdFloatMultAcc            0      0.00%     76.91% # Class of committed instruction
system.switch_cpus.commit.op_class_0::SimdFloatSqrt            0      0.00%     76.91% # Class of committed instruction
system.switch_cpus.commit.op_class_0::SimdReduceAdd            0      0.00%     76.91% # Class of committed instruction
system.switch_cpus.commit.op_class_0::SimdReduceAlu            0      0.00%     76.91% # Class of committed instruction
system.switch_cpus.commit.op_class_0::SimdReduceCmp            0      0.00%     76.91% # Class of committed instruction
system.switch_cpus.commit.op_class_0::SimdFloatReduceAdd            0      0.00%     76.91% # Class of committed instruction
system.switch_cpus.commit.op_class_0::SimdFloatReduceCmp            0      0.00%     76.91% # Class of committed instruction
system.switch_cpus.commit.op_class_0::SimdAes            0      0.00%     76.91% # Class of committed instruction
system.switch_cpus.commit.op_class_0::SimdAesMix            0      0.00%     76.91% # Class of committed instruction
system.switch_cpus.commit.op_class_0::SimdSha1Hash            0      0.00%     76.91% # Class of committed instruction
system.switch_cpus.commit.op_class_0::SimdSha1Hash2            0      0.00%     76.91% # Class of committed instruction
system.switch_cpus.commit.op_class_0::SimdSha256Hash            0      0.00%     76.91% # Class of committed instruction
system.switch_cpus.commit.op_class_0::SimdSha256Hash2            0      0.00%     76.91% # Class of committed instruction
system.switch_cpus.commit.op_class_0::SimdShaSigma2            0      0.00%     76.91% # Class of committed instruction
system.switch_cpus.commit.op_class_0::SimdShaSigma3            0      0.00%     76.91% # Class of committed instruction
system.switch_cpus.commit.op_class_0::SimdPredAlu            0      0.00%     76.91% # Class of committed instruction
system.switch_cpus.commit.op_class_0::MemRead    149418901     14.47%     91.38% # Class of committed instruction
system.switch_cpus.commit.op_class_0::MemWrite     86926928      8.42%     99.80% # Class of committed instruction
system.switch_cpus.commit.op_class_0::FloatMemRead       261830      0.03%     99.82% # Class of committed instruction
system.switch_cpus.commit.op_class_0::FloatMemWrite      1823664      0.18%    100.00% # Class of committed instruction
system.switch_cpus.commit.op_class_0::IprAccess            0      0.00%    100.00% # Class of committed instruction
system.switch_cpus.commit.op_class_0::InstPrefetch            0      0.00%    100.00% # Class of committed instruction
system.switch_cpus.commit.op_class_0::total   1032584851                       # Class of committed instruction
system.switch_cpus.commit.refs              238431323                       # Number of memory references committed
system.switch_cpus.commit.swp_count                 0                       # Number of s/w prefetches committed
system.switch_cpus.commit.vec_insts                 0                       # Number of committed Vector instructions.
system.switch_cpus.committedInsts           500000000                       # Number of Instructions Simulated
system.switch_cpus.committedOps            1032584851                       # Number of Ops (including micro ops) Simulated
system.switch_cpus.cpi                       2.360828                       # CPI: Cycles Per Instruction
system.switch_cpus.cpi_total                 2.360828                       # CPI: Total CPI of All Threads
system.switch_cpus.decode.BlockedCycles     200945543                       # Number of cycles decode is blocked
system.switch_cpus.decode.DecodedInsts     2010454639                       # Number of instructions handled by decode
system.switch_cpus.decode.IdleCycles        431471597                       # Number of cycles decode is idle
system.switch_cpus.decode.RunCycles         274047244                       # Number of cycles decode is running
system.switch_cpus.decode.SquashCycles       28475523                       # Number of cycles decode is squashing
system.switch_cpus.decode.UnblockCycles      18762053                       # Number of cycles decode is unblocking
system.switch_cpus.dtb.rdAccesses           202797483                       # TLB accesses on read requests
system.switch_cpus.dtb.rdMisses               4121961                       # TLB misses on read requests
system.switch_cpus.dtb.wrAccesses           114295096                       # TLB accesses on write requests
system.switch_cpus.dtb.wrMisses                804433                       # TLB misses on write requests
system.switch_cpus.fetch.Branches           242705027                       # Number of branches that fetch encountered
system.switch_cpus.fetch.CacheLines         144316442                       # Number of cache lines fetched
system.switch_cpus.fetch.Cycles             449506776                       # Number of cycles fetch has run and was not squashing or blocked
system.switch_cpus.fetch.IcacheSquashes      13869358                       # Number of outstanding Icache misses that were squashed
system.switch_cpus.fetch.IcacheWaitRetryStallCycles       147713                       # Number of stall cycles due to full MSHR
system.switch_cpus.fetch.Insts             1047495081                       # Number of instructions fetch has processed
system.switch_cpus.fetch.ItlbSquashes               1                       # Number of outstanding ITLB misses that were squashed
system.switch_cpus.fetch.MiscStallCycles       132516                       # Number of cycles fetch has spent waiting on interrupts, or bad addresses, or out of MSHRs
system.switch_cpus.fetch.PendingQuiesceStallCycles         1180                       # Number of stall cycles due to pending quiesce instructions
system.switch_cpus.fetch.PendingTrapStallCycles       450008                       # Number of stall cycles due to pending traps
system.switch_cpus.fetch.SquashCycles        56951046                       # Number of cycles fetch has spent squashing
system.switch_cpus.fetch.TlbCycles                135                       # Number of cycles fetch has spent waiting for tlb
system.switch_cpus.fetch.branchRate          0.205610                       # Number of branch fetches per cycle
system.switch_cpus.fetch.icacheStallCycles    474988114                       # Number of cycles fetch is stalled on an Icache miss
system.switch_cpus.fetch.predictedBranches     67731892                       # Number of branches that fetch has predicted taken
system.switch_cpus.fetch.rate                0.887396                       # Number of inst fetches per cycle
system.switch_cpus.fetch.rateDist::samples    953701965                       # Number of instructions fetched each cycle (Total)
system.switch_cpus.fetch.rateDist::mean      2.252890                       # Number of instructions fetched each cycle (Total)
system.switch_cpus.fetch.rateDist::stdev     3.391150                       # Number of instructions fetched each cycle (Total)
system.switch_cpus.fetch.rateDist::underflows            0      0.00%      0.00% # Number of instructions fetched each cycle (Total)
system.switch_cpus.fetch.rateDist::0        628344456     65.88%     65.88% # Number of instructions fetched each cycle (Total)
system.switch_cpus.fetch.rateDist::1         15340453      1.61%     67.49% # Number of instructions fetched each cycle (Total)
system.switch_cpus.fetch.rateDist::2         17062985      1.79%     69.28% # Number of instructions fetched each cycle (Total)
system.switch_cpus.fetch.rateDist::3         14694246      1.54%     70.82% # Number of instructions fetched each cycle (Total)
system.switch_cpus.fetch.rateDist::4         17628981      1.85%     72.67% # Number of instructions fetched each cycle (Total)
system.switch_cpus.fetch.rateDist::5         16979650      1.78%     74.45% # Number of instructions fetched each cycle (Total)
system.switch_cpus.fetch.rateDist::6         17868663      1.87%     76.33% # Number of instructions fetched each cycle (Total)
system.switch_cpus.fetch.rateDist::7         13849759      1.45%     77.78% # Number of instructions fetched each cycle (Total)
system.switch_cpus.fetch.rateDist::8        211932772     22.22%    100.00% # Number of instructions fetched each cycle (Total)
system.switch_cpus.fetch.rateDist::overflows            0      0.00%    100.00% # Number of instructions fetched each cycle (Total)
system.switch_cpus.fetch.rateDist::min_value            0                       # Number of instructions fetched each cycle (Total)
system.switch_cpus.fetch.rateDist::max_value            8                       # Number of instructions fetched each cycle (Total)
system.switch_cpus.fetch.rateDist::total    953701965                       # Number of instructions fetched each cycle (Total)
system.switch_cpus.fp_regfile_reads           7334263                       # number of floating regfile reads
system.switch_cpus.fp_regfile_writes          3438097                       # number of floating regfile writes
system.switch_cpus.idleCycles               226712212                       # Total number of cycles that the CPU has spent unscheduled due to idling
system.switch_cpus.iew.branchMispredicts     37495937                       # Number of branch mispredicts detected at execute
system.switch_cpus.iew.exec_branches        145364847                       # Number of branches executed
system.switch_cpus.iew.exec_nop                     0                       # number of nop insts executed
system.switch_cpus.iew.exec_rate             1.216263                       # Inst execution rate
system.switch_cpus.iew.exec_refs            317227962                       # number of memory reference insts executed
system.switch_cpus.iew.exec_stores          114281694                       # Number of stores executed
system.switch_cpus.iew.exec_swp                     0                       # number of swp insts executed
system.switch_cpus.iew.iewBlockCycles       108589151                       # Number of cycles IEW is blocking
system.switch_cpus.iew.iewDispLoadInsts     242647117                       # Number of dispatched load instructions
system.switch_cpus.iew.iewDispNonSpecInsts         9551                       # Number of dispatched non-speculative instructions
system.switch_cpus.iew.iewDispSquashedInsts      1991540                       # Number of squashed instructions skipped by dispatch
system.switch_cpus.iew.iewDispStoreInsts    139371065                       # Number of dispatched store instructions
system.switch_cpus.iew.iewDispatchedInsts   1703763440                       # Number of instructions dispatched to IQ
system.switch_cpus.iew.iewExecLoadInsts     202946268                       # Number of load instructions executed
system.switch_cpus.iew.iewExecSquashedInsts     58886222                       # Number of squashed instructions skipped in execute
system.switch_cpus.iew.iewExecutedInsts    1435693687                       # Number of executed instructions
system.switch_cpus.iew.iewIQFullEvents         425327                       # Number of times the IQ has become full, causing a stall
system.switch_cpus.iew.iewIdleCycles                0                       # Number of cycles IEW is idle
system.switch_cpus.iew.iewLSQFullEvents      11008275                       # Number of times the LSQ has become full, causing a stall
system.switch_cpus.iew.iewSquashCycles       28475523                       # Number of cycles IEW is squashing
system.switch_cpus.iew.iewUnblockCycles      11593046                       # Number of cycles IEW is unblocking
system.switch_cpus.iew.lsq.thread0.blockedLoads            0                       # Number of blocked loads due to partial load-store forwarding
system.switch_cpus.iew.lsq.thread0.cacheBlocked        62201                       # Number of times an access to memory failed due to the cache being blocked
system.switch_cpus.iew.lsq.thread0.forwLoads     16978364                       # Number of loads that had data forwarded from stores
system.switch_cpus.iew.lsq.thread0.ignoredResponses       164246                       # Number of memory responses ignored because the instruction is squashed
system.switch_cpus.iew.lsq.thread0.invAddrLoads            0                       # Number of loads ignored due to an invalid address
system.switch_cpus.iew.lsq.thread0.invAddrSwpfs            0                       # Number of software prefetches ignored due to an invalid address
system.switch_cpus.iew.lsq.thread0.memOrderViolation       134003                       # Number of memory ordering violations
system.switch_cpus.iew.lsq.thread0.rescheduledLoads       446447                       # Number of loads that were rescheduled
system.switch_cpus.iew.lsq.thread0.squashedLoads     92966385                       # Number of loads squashed
system.switch_cpus.iew.lsq.thread0.squashedStores     50620473                       # Number of stores squashed
system.switch_cpus.iew.memOrderViolationEvents       134003                       # Number of memory order violations
system.switch_cpus.iew.predictedNotTakenIncorrect     34949438                       # Number of branches that were predicted not taken incorrectly
system.switch_cpus.iew.predictedTakenIncorrect      2546499                       # Number of branches that were predicted taken incorrectly
system.switch_cpus.iew.wb_consumers        1509418502                       # num instructions consuming a value
system.switch_cpus.iew.wb_count            1409831523                       # cumulative count of insts written-back
system.switch_cpus.iew.wb_fanout             0.637404                       # average fanout of values written-back
system.switch_cpus.iew.wb_producers         962109631                       # num instructions producing a value
system.switch_cpus.iew.wb_rate               1.194353                       # insts written-back per cycle
system.switch_cpus.iew.wb_sent             1421534776                       # cumulative count of insts sent to commit
system.switch_cpus.int_regfile_reads       2131871369                       # number of integer regfile reads
system.switch_cpus.int_regfile_writes      1148807446                       # number of integer regfile writes
system.switch_cpus.ipc                       0.423580                       # IPC: Instructions Per Cycle
system.switch_cpus.ipc_total                 0.423580                       # IPC: Total IPC of All Threads
system.switch_cpus.iq.FU_type_0::No_OpClass     12584008      0.84%      0.84% # Type of FU issued
system.switch_cpus.iq.FU_type_0::IntAlu    1141593444     76.38%     77.22% # Type of FU issued
system.switch_cpus.iq.FU_type_0::IntMult      1196337      0.08%     77.30% # Type of FU issued
system.switch_cpus.iq.FU_type_0::IntDiv       2223215      0.15%     77.45% # Type of FU issued
system.switch_cpus.iq.FU_type_0::FloatAdd       140746      0.01%     77.46% # Type of FU issued
system.switch_cpus.iq.FU_type_0::FloatCmp            0      0.00%     77.46% # Type of FU issued
system.switch_cpus.iq.FU_type_0::FloatCvt            2      0.00%     77.46% # Type of FU issued
system.switch_cpus.iq.FU_type_0::FloatMult            1      0.00%     77.46% # Type of FU issued
system.switch_cpus.iq.FU_type_0::FloatMultAcc            0      0.00%     77.46% # Type of FU issued
system.switch_cpus.iq.FU_type_0::FloatDiv            1      0.00%     77.46% # Type of FU issued
system.switch_cpus.iq.FU_type_0::FloatMisc            0      0.00%     77.46% # Type of FU issued
system.switch_cpus.iq.FU_type_0::FloatSqrt            0      0.00%     77.46% # Type of FU issued
system.switch_cpus.iq.FU_type_0::SimdAdd         9573      0.00%     77.46% # Type of FU issued
system.switch_cpus.iq.FU_type_0::SimdAddAcc            0      0.00%     77.46% # Type of FU issued
system.switch_cpus.iq.FU_type_0::SimdAlu       323351      0.02%     77.48% # Type of FU issued
system.switch_cpus.iq.FU_type_0::SimdCmp            0      0.00%     77.48% # Type of FU issued
system.switch_cpus.iq.FU_type_0::SimdCvt       130728      0.01%     77.49% # Type of FU issued
system.switch_cpus.iq.FU_type_0::SimdMisc      1054175      0.07%     77.56% # Type of FU issued
system.switch_cpus.iq.FU_type_0::SimdMult            0      0.00%     77.56% # Type of FU issued
system.switch_cpus.iq.FU_type_0::SimdMultAcc            0      0.00%     77.56% # Type of FU issued
system.switch_cpus.iq.FU_type_0::SimdShift        10708      0.00%     77.56% # Type of FU issued
system.switch_cpus.iq.FU_type_0::SimdShiftAcc            0      0.00%     77.56% # Type of FU issued
system.switch_cpus.iq.FU_type_0::SimdDiv            0      0.00%     77.56% # Type of FU issued
system.switch_cpus.iq.FU_type_0::SimdSqrt            0      0.00%     77.56% # Type of FU issued
system.switch_cpus.iq.FU_type_0::SimdFloatAdd           12      0.00%     77.56% # Type of FU issued
system.switch_cpus.iq.FU_type_0::SimdFloatAlu            0      0.00%     77.56% # Type of FU issued
system.switch_cpus.iq.FU_type_0::SimdFloatCmp            0      0.00%     77.56% # Type of FU issued
system.switch_cpus.iq.FU_type_0::SimdFloatCvt            1      0.00%     77.56% # Type of FU issued
system.switch_cpus.iq.FU_type_0::SimdFloatDiv            0      0.00%     77.56% # Type of FU issued
system.switch_cpus.iq.FU_type_0::SimdFloatMisc            0      0.00%     77.56% # Type of FU issued
system.switch_cpus.iq.FU_type_0::SimdFloatMult            0      0.00%     77.56% # Type of FU issued
system.switch_cpus.iq.FU_type_0::SimdFloatMultAcc            0      0.00%     77.56% # Type of FU issued
system.switch_cpus.iq.FU_type_0::SimdFloatSqrt            0      0.00%     77.56% # Type of FU issued
system.switch_cpus.iq.FU_type_0::SimdReduceAdd            0      0.00%     77.56% # Type of FU issued
system.switch_cpus.iq.FU_type_0::SimdReduceAlu            0      0.00%     77.56% # Type of FU issued
system.switch_cpus.iq.FU_type_0::SimdReduceCmp            0      0.00%     77.56% # Type of FU issued
system.switch_cpus.iq.FU_type_0::SimdFloatReduceAdd            0      0.00%     77.56% # Type of FU issued
system.switch_cpus.iq.FU_type_0::SimdFloatReduceCmp            0      0.00%     77.56% # Type of FU issued
system.switch_cpus.iq.FU_type_0::SimdAes            0      0.00%     77.56% # Type of FU issued
system.switch_cpus.iq.FU_type_0::SimdAesMix            0      0.00%     77.56% # Type of FU issued
system.switch_cpus.iq.FU_type_0::SimdSha1Hash            0      0.00%     77.56% # Type of FU issued
system.switch_cpus.iq.FU_type_0::SimdSha1Hash2            0      0.00%     77.56% # Type of FU issued
system.switch_cpus.iq.FU_type_0::SimdSha256Hash            0      0.00%     77.56% # Type of FU issued
system.switch_cpus.iq.FU_type_0::SimdSha256Hash2            0      0.00%     77.56% # Type of FU issued
system.switch_cpus.iq.FU_type_0::SimdShaSigma2            0      0.00%     77.56% # Type of FU issued
system.switch_cpus.iq.FU_type_0::SimdShaSigma3            0      0.00%     77.56% # Type of FU issued
system.switch_cpus.iq.FU_type_0::SimdPredAlu            0      0.00%     77.56% # Type of FU issued
system.switch_cpus.iq.FU_type_0::MemRead    212413102     14.21%     91.78% # Type of FU issued
system.switch_cpus.iq.FU_type_0::MemWrite    116552807      7.80%     99.58% # Type of FU issued
system.switch_cpus.iq.FU_type_0::FloatMemRead      1979191      0.13%     99.71% # Type of FU issued
system.switch_cpus.iq.FU_type_0::FloatMemWrite      4368510      0.29%    100.00% # Type of FU issued
system.switch_cpus.iq.FU_type_0::IprAccess            0      0.00%    100.00% # Type of FU issued
system.switch_cpus.iq.FU_type_0::InstPrefetch            0      0.00%    100.00% # Type of FU issued
system.switch_cpus.iq.FU_type_0::total     1494579912                       # Type of FU issued
system.switch_cpus.iq.fp_alu_accesses         9066102                       # Number of floating point alu accesses
system.switch_cpus.iq.fp_inst_queue_reads     17367778                       # Number of floating instruction queue reads
system.switch_cpus.iq.fp_inst_queue_wakeup_accesses      7492736                       # Number of floating instruction queue wakeup accesses
system.switch_cpus.iq.fp_inst_queue_writes     14382985                       # Number of floating instruction queue writes
system.switch_cpus.iq.fu_busy_cnt            25526070                       # FU busy when requested
system.switch_cpus.iq.fu_busy_rate           0.017079                       # FU busy rate (busy events/executed inst)
system.switch_cpus.iq.fu_full::No_OpClass            0      0.00%      0.00% # attempts to use FU when none available
system.switch_cpus.iq.fu_full::IntAlu        22102154     86.59%     86.59% # attempts to use FU when none available
system.switch_cpus.iq.fu_full::IntMult              0      0.00%     86.59% # attempts to use FU when none available
system.switch_cpus.iq.fu_full::IntDiv               0      0.00%     86.59% # attempts to use FU when none available
system.switch_cpus.iq.fu_full::FloatAdd             0      0.00%     86.59% # attempts to use FU when none available
system.switch_cpus.iq.fu_full::FloatCmp             0      0.00%     86.59% # attempts to use FU when none available
system.switch_cpus.iq.fu_full::FloatCvt             0      0.00%     86.59% # attempts to use FU when none available
system.switch_cpus.iq.fu_full::FloatMult            0      0.00%     86.59% # attempts to use FU when none available
system.switch_cpus.iq.fu_full::FloatMultAcc            0      0.00%     86.59% # attempts to use FU when none available
system.switch_cpus.iq.fu_full::FloatDiv             0      0.00%     86.59% # attempts to use FU when none available
system.switch_cpus.iq.fu_full::FloatMisc            0      0.00%     86.59% # attempts to use FU when none available
system.switch_cpus.iq.fu_full::FloatSqrt            0      0.00%     86.59% # attempts to use FU when none available
system.switch_cpus.iq.fu_full::SimdAdd              0      0.00%     86.59% # attempts to use FU when none available
system.switch_cpus.iq.fu_full::SimdAddAcc            0      0.00%     86.59% # attempts to use FU when none available
system.switch_cpus.iq.fu_full::SimdAlu          37704      0.15%     86.73% # attempts to use FU when none available
system.switch_cpus.iq.fu_full::SimdCmp              0      0.00%     86.73% # attempts to use FU when none available
system.switch_cpus.iq.fu_full::SimdCvt              5      0.00%     86.73% # attempts to use FU when none available
system.switch_cpus.iq.fu_full::SimdMisc           113      0.00%     86.73% # attempts to use FU when none available
system.switch_cpus.iq.fu_full::SimdMult             0      0.00%     86.73% # attempts to use FU when none available
system.switch_cpus.iq.fu_full::SimdMultAcc            0      0.00%     86.73% # attempts to use FU when none available
system.switch_cpus.iq.fu_full::SimdShift            0      0.00%     86.73% # attempts to use FU when none available
system.switch_cpus.iq.fu_full::SimdShiftAcc            0      0.00%     86.73% # attempts to use FU when none available
system.switch_cpus.iq.fu_full::SimdDiv              0      0.00%     86.73% # attempts to use FU when none available
system.switch_cpus.iq.fu_full::SimdSqrt             0      0.00%     86.73% # attempts to use FU when none available
system.switch_cpus.iq.fu_full::SimdFloatAdd            0      0.00%     86.73% # attempts to use FU when none available
system.switch_cpus.iq.fu_full::SimdFloatAlu            0      0.00%     86.73% # attempts to use FU when none available
system.switch_cpus.iq.fu_full::SimdFloatCmp            0      0.00%     86.73% # attempts to use FU when none available
system.switch_cpus.iq.fu_full::SimdFloatCvt            0      0.00%     86.73% # attempts to use FU when none available
system.switch_cpus.iq.fu_full::SimdFloatDiv            0      0.00%     86.73% # attempts to use FU when none available
system.switch_cpus.iq.fu_full::SimdFloatMisc            0      0.00%     86.73% # attempts to use FU when none available
system.switch_cpus.iq.fu_full::SimdFloatMult            0      0.00%     86.73% # attempts to use FU when none available
system.switch_cpus.iq.fu_full::SimdFloatMultAcc            0      0.00%     86.73% # attempts to use FU when none available
system.switch_cpus.iq.fu_full::SimdFloatSqrt            0      0.00%     86.73% # attempts to use FU when none available
system.switch_cpus.iq.fu_full::SimdReduceAdd            0      0.00%     86.73% # attempts to use FU when none available
system.switch_cpus.iq.fu_full::SimdReduceAlu            0      0.00%     86.73% # attempts to use FU when none available
system.switch_cpus.iq.fu_full::SimdReduceCmp            0      0.00%     86.73% # attempts to use FU when none available
system.switch_cpus.iq.fu_full::SimdFloatReduceAdd            0      0.00%     86.73% # attempts to use FU when none available
system.switch_cpus.iq.fu_full::SimdFloatReduceCmp            0      0.00%     86.73% # attempts to use FU when none available
system.switch_cpus.iq.fu_full::SimdAes              0      0.00%     86.73% # attempts to use FU when none available
system.switch_cpus.iq.fu_full::SimdAesMix            0      0.00%     86.73% # attempts to use FU when none available
system.switch_cpus.iq.fu_full::SimdSha1Hash            0      0.00%     86.73% # attempts to use FU when none available
system.switch_cpus.iq.fu_full::SimdSha1Hash2            0      0.00%     86.73% # attempts to use FU when none available
system.switch_cpus.iq.fu_full::SimdSha256Hash            0      0.00%     86.73% # attempts to use FU when none available
system.switch_cpus.iq.fu_full::SimdSha256Hash2            0      0.00%     86.73% # attempts to use FU when none available
system.switch_cpus.iq.fu_full::SimdShaSigma2            0      0.00%     86.73% # attempts to use FU when none available
system.switch_cpus.iq.fu_full::SimdShaSigma3            0      0.00%     86.73% # attempts to use FU when none available
system.switch_cpus.iq.fu_full::SimdPredAlu            0      0.00%     86.73% # attempts to use FU when none available
system.switch_cpus.iq.fu_full::MemRead        1656358      6.49%     93.22% # attempts to use FU when none available
system.switch_cpus.iq.fu_full::MemWrite        859552      3.37%     96.59% # attempts to use FU when none available
system.switch_cpus.iq.fu_full::FloatMemRead       391823      1.53%     98.13% # attempts to use FU when none available
system.switch_cpus.iq.fu_full::FloatMemWrite       478361      1.87%    100.00% # attempts to use FU when none available
system.switch_cpus.iq.fu_full::IprAccess            0      0.00%    100.00% # attempts to use FU when none available
system.switch_cpus.iq.fu_full::InstPrefetch            0      0.00%    100.00% # attempts to use FU when none available
system.switch_cpus.iq.int_alu_accesses     1498455872                       # Number of integer alu accesses
system.switch_cpus.iq.int_inst_queue_reads   3959374349                       # Number of integer instruction queue reads
system.switch_cpus.iq.int_inst_queue_wakeup_accesses   1402338787                       # Number of integer instruction queue wakeup accesses
system.switch_cpus.iq.int_inst_queue_writes   2360687640                       # Number of integer instruction queue writes
system.switch_cpus.iq.iqInstsAdded         1703730879                       # Number of instructions added to the IQ (excludes non-spec)
system.switch_cpus.iq.iqInstsIssued        1494579912                       # Number of instructions issued
system.switch_cpus.iq.iqNonSpecInstsAdded        32561                       # Number of non-speculative instructions added to the IQ
system.switch_cpus.iq.iqSquashedInstsExamined    671178557                       # Number of squashed instructions iterated over during squash; mainly for profiling
system.switch_cpus.iq.iqSquashedInstsIssued      8354271                       # Number of squashed instructions issued
system.switch_cpus.iq.iqSquashedNonSpecRemoved        22939                       # Number of squashed non-spec instructions that were removed
system.switch_cpus.iq.iqSquashedOperandsExamined    889790832                       # Number of squashed operands that are examined and possibly removed from graph
system.switch_cpus.iq.issued_per_cycle::samples    953701965                       # Number of insts issued each cycle
system.switch_cpus.iq.issued_per_cycle::mean     1.567135                       # Number of insts issued each cycle
system.switch_cpus.iq.issued_per_cycle::stdev     2.312833                       # Number of insts issued each cycle
system.switch_cpus.iq.issued_per_cycle::underflows            0      0.00%      0.00% # Number of insts issued each cycle
system.switch_cpus.iq.issued_per_cycle::0    568423767     59.60%     59.60% # Number of insts issued each cycle
system.switch_cpus.iq.issued_per_cycle::1     58950249      6.18%     65.78% # Number of insts issued each cycle
system.switch_cpus.iq.issued_per_cycle::2     61953065      6.50%     72.28% # Number of insts issued each cycle
system.switch_cpus.iq.issued_per_cycle::3     59562456      6.25%     78.52% # Number of insts issued each cycle
system.switch_cpus.iq.issued_per_cycle::4     56984587      5.98%     84.50% # Number of insts issued each cycle
system.switch_cpus.iq.issued_per_cycle::5     48424450      5.08%     89.58% # Number of insts issued each cycle
system.switch_cpus.iq.issued_per_cycle::6     50258386      5.27%     94.85% # Number of insts issued each cycle
system.switch_cpus.iq.issued_per_cycle::7     31734789      3.33%     98.17% # Number of insts issued each cycle
system.switch_cpus.iq.issued_per_cycle::8     17410216      1.83%    100.00% # Number of insts issued each cycle
system.switch_cpus.iq.issued_per_cycle::overflows            0      0.00%    100.00% # Number of insts issued each cycle
system.switch_cpus.iq.issued_per_cycle::min_value            0                       # Number of insts issued each cycle
system.switch_cpus.iq.issued_per_cycle::max_value            8                       # Number of insts issued each cycle
system.switch_cpus.iq.issued_per_cycle::total    953701965                       # Number of insts issued each cycle
system.switch_cpus.iq.rate                   1.266149                       # Inst issue rate
system.switch_cpus.iq.vec_alu_accesses              0                       # Number of vector alu accesses
system.switch_cpus.iq.vec_inst_queue_reads            0                       # Number of vector instruction queue reads
system.switch_cpus.iq.vec_inst_queue_wakeup_accesses            0                       # Number of vector instruction queue wakeup accesses
system.switch_cpus.iq.vec_inst_queue_writes            0                       # Number of vector instruction queue writes
system.switch_cpus.itb.rdAccesses                   0                       # TLB accesses on read requests
system.switch_cpus.itb.rdMisses                     0                       # TLB misses on read requests
system.switch_cpus.itb.wrAccesses           144392136                       # TLB accesses on write requests
system.switch_cpus.itb.wrMisses               1970671                       # TLB misses on write requests
system.switch_cpus.memDep0.conflictingLoads      6057667                       # Number of conflicting loads.
system.switch_cpus.memDep0.conflictingStores      6147213                       # Number of conflicting stores.
system.switch_cpus.memDep0.insertedLoads    242647117                       # Number of loads inserted to the mem dependence unit.
system.switch_cpus.memDep0.insertedStores    139371065                       # Number of stores inserted to the mem dependence unit.
system.switch_cpus.misc_regfile_reads       634951123                       # number of misc regfile reads
system.switch_cpus.numCycles               1180414177                       # number of cpu cycles simulated
system.switch_cpus.numWorkItemsCompleted            0                       # number of work items this cpu completed
system.switch_cpus.numWorkItemsStarted              0                       # number of work items this cpu started
system.switch_cpus.rename.BlockCycles       167222088                       # Number of cycles rename is blocking
system.switch_cpus.rename.CommittedMaps    1087006399                       # Number of HB maps that are committed
system.switch_cpus.rename.IQFullEvents        4583200                       # Number of times rename has blocked due to IQ full
system.switch_cpus.rename.IdleCycles        446445335                       # Number of cycles rename is idle
system.switch_cpus.rename.LQFullEvents        4824337                       # Number of times rename has blocked due to LQ full
system.switch_cpus.rename.ROBFullEvents       2406081                       # Number of times rename has blocked due to ROB full
system.switch_cpus.rename.RenameLookups    4683065265                       # Number of register rename lookups that rename has made
system.switch_cpus.rename.RenamedInsts     1909767518                       # Number of instructions processed by rename
system.switch_cpus.rename.RenamedOperands   1996901218                       # Number of destination operands rename has renamed
system.switch_cpus.rename.RunCycles         275785182                       # Number of cycles rename is running
system.switch_cpus.rename.SQFullEvents       23757045                       # Number of times rename has blocked due to SQ full
system.switch_cpus.rename.SquashCycles       28475523                       # Number of cycles rename is squashing
system.switch_cpus.rename.UnblockCycles      35749687                       # Number of cycles rename is unblocking
system.switch_cpus.rename.UndoneMaps        909894742                       # Number of HB maps that are undone due to squashing
system.switch_cpus.rename.fp_rename_lookups      9124830                       # Number of floating rename lookups
system.switch_cpus.rename.int_rename_lookups   2968452071                       # Number of integer rename lookups
system.switch_cpus.rename.serializeStallCycles        24145                       # count of cycles rename stalled for serializing inst
system.switch_cpus.rename.serializingInsts          407                       # count of serializing insts renamed
system.switch_cpus.rename.skidInsts          33780635                       # count of insts added to the skid buffer
system.switch_cpus.rename.tempSerializingInsts          412                       # count of temporary serializing insts renamed
system.switch_cpus.rob.rob_reads           2496814317                       # The number of ROB reads
system.switch_cpus.rob.rob_writes          3512873914                       # The number of ROB writes
system.switch_cpus.timesIdled                 8370076                       # Number of times that the entire CPU went into an idle state and unscheduled itself
system.tol2bus.snoop_filter.hit_multi_requests       183714                       # Number of requests hitting in the snoop filter with multiple (>1) holders of the requested data.
system.tol2bus.snoop_filter.hit_multi_snoops        55027                       # Number of snoops hitting in the snoop filter with multiple (>1) holders of the requested data.
system.tol2bus.snoop_filter.hit_single_requests     23534996                       # Number of requests hitting in the snoop filter with a single holder of the requested data.
system.tol2bus.snoop_filter.hit_single_snoops      1086317                       # Number of snoops hitting in the snoop filter with a single holder of the requested data.
system.tol2bus.snoop_filter.tot_requests     47078793                       # Total number of requests made to the snoop filter.
system.tol2bus.snoop_filter.tot_snoops        1141344                       # Total number of snoops made to the snoop filter.
system.membus.pwrStateResidencyTicks::UNDEFINED 1773065631500                       # Cumulative time (in ticks) in various power states
system.membus.trans_dist::ReadResp            3771229                       # Transaction distribution
system.membus.trans_dist::WritebackDirty       654689                       # Transaction distribution
system.membus.trans_dist::CleanEvict          3580544                       # Transaction distribution
system.membus.trans_dist::UpgradeReq             3737                       # Transaction distribution
system.membus.trans_dist::ReadExReq            465651                       # Transaction distribution
system.membus.trans_dist::ReadExResp           465651                       # Transaction distribution
system.membus.trans_dist::ReadSharedReq       3771232                       # Transaction distribution
system.membus.pkt_count_system.l2.mem_side::system.mem_ctrls.port     12712733                       # Packet count per connected master and slave (bytes)
system.membus.pkt_count_system.l2.mem_side::total     12712733                       # Packet count per connected master and slave (bytes)
system.membus.pkt_count::total               12712733                       # Packet count per connected master and slave (bytes)
system.membus.pkt_size_system.l2.mem_side::system.mem_ctrls.port    313060416                       # Cumulative packet size per connected master and slave (bytes)
system.membus.pkt_size_system.l2.mem_side::total    313060416                       # Cumulative packet size per connected master and slave (bytes)
system.membus.pkt_size::total               313060416                       # Cumulative packet size per connected master and slave (bytes)
system.membus.snoops                                0                       # Total snoops (count)
system.membus.snoopTraffic                          0                       # Total snoop traffic (bytes)
system.membus.snoop_fanout::samples           4240620                       # Request fanout histogram
system.membus.snoop_fanout::mean                    0                       # Request fanout histogram
system.membus.snoop_fanout::stdev                   0                       # Request fanout histogram
system.membus.snoop_fanout::underflows              0      0.00%      0.00% # Request fanout histogram
system.membus.snoop_fanout::0                 4240620    100.00%    100.00% # Request fanout histogram
system.membus.snoop_fanout::1                       0      0.00%    100.00% # Request fanout histogram
system.membus.snoop_fanout::overflows               0      0.00%    100.00% # Request fanout histogram
system.membus.snoop_fanout::min_value               0                       # Request fanout histogram
system.membus.snoop_fanout::max_value               0                       # Request fanout histogram
system.membus.snoop_fanout::total             4240620                       # Request fanout histogram
system.membus.reqLayer2.occupancy         12217751002                       # Layer occupancy (ticks)
system.membus.reqLayer2.utilization               2.1                       # Layer utilization (%)
system.membus.respLayer1.occupancy        22916365750                       # Layer occupancy (ticks)
system.membus.respLayer1.utilization              3.9                       # Layer utilization (%)
system.switch_cpus.pwrStateResidencyTicks::OFF 1773065631500                       # Cumulative time (in ticks) in various power states
system.switch_cpus.dtb.walker.pwrStateResidencyTicks::UNDEFINED 1773065631500                       # Cumulative time (in ticks) in various power states
system.switch_cpus.itb.walker.pwrStateResidencyTicks::UNDEFINED 1773065631500                       # Cumulative time (in ticks) in various power states
system.tol2bus.pwrStateResidencyTicks::UNDEFINED 1773065631500                       # Cumulative time (in ticks) in various power states
system.tol2bus.trans_dist::ReadResp          22683061                       # Transaction distribution
system.tol2bus.trans_dist::WritebackDirty      2037944                       # Transaction distribution
system.tol2bus.trans_dist::WritebackClean     20040776                       # Transaction distribution
system.tol2bus.trans_dist::CleanEvict         6314288                       # Transaction distribution
system.tol2bus.trans_dist::UpgradeReq            7275                       # Transaction distribution
system.tol2bus.trans_dist::UpgradeResp           7275                       # Transaction distribution
system.tol2bus.trans_dist::ReadExReq           855522                       # Transaction distribution
system.tol2bus.trans_dist::ReadExResp          855522                       # Transaction distribution
system.tol2bus.trans_dist::ReadCleanReq      20046430                       # Transaction distribution
system.tol2bus.trans_dist::ReadSharedReq      2636634                       # Transaction distribution
system.tol2bus.pkt_count_system.cpu.icache.mem_side::system.l2.cpu_side     60123547                       # Packet count per connected master and slave (bytes)
system.tol2bus.pkt_count_system.cpu.dcache.mem_side::system.l2.cpu_side     10491018                       # Packet count per connected master and slave (bytes)
system.tol2bus.pkt_count::total              70614565                       # Packet count per connected master and slave (bytes)
system.tol2bus.pkt_size_system.cpu.icache.mem_side::system.l2.cpu_side   2564935488                       # Cumulative packet size per connected master and slave (bytes)
system.tol2bus.pkt_size_system.cpu.dcache.mem_side::system.l2.cpu_side    312026304                       # Cumulative packet size per connected master and slave (bytes)
system.tol2bus.pkt_size::total             2876961792                       # Cumulative packet size per connected master and slave (bytes)
system.tol2bus.snoops                         4870162                       # Total snoops (count)
system.tol2bus.snoopTraffic                  42545600                       # Total snoop traffic (bytes)
system.tol2bus.snoop_fanout::samples         28405937                       # Request fanout histogram
system.tol2bus.snoop_fanout::mean            0.048586                       # Request fanout histogram
system.tol2bus.snoop_fanout::stdev           0.223830                       # Request fanout histogram
system.tol2bus.snoop_fanout::underflows             0      0.00%      0.00% # Request fanout histogram
system.tol2bus.snoop_fanout::0               27080830     95.34%     95.34% # Request fanout histogram
system.tol2bus.snoop_fanout::1                1270080      4.47%     99.81% # Request fanout histogram
system.tol2bus.snoop_fanout::2                  55027      0.19%    100.00% # Request fanout histogram
system.tol2bus.snoop_fanout::3                      0      0.00%    100.00% # Request fanout histogram
system.tol2bus.snoop_fanout::4                      0      0.00%    100.00% # Request fanout histogram
system.tol2bus.snoop_fanout::overflows              0      0.00%    100.00% # Request fanout histogram
system.tol2bus.snoop_fanout::min_value              0                       # Request fanout histogram
system.tol2bus.snoop_fanout::max_value              2                       # Request fanout histogram
system.tol2bus.snoop_fanout::total           28405937                       # Request fanout histogram
system.tol2bus.reqLayer0.occupancy        44963428498                       # Layer occupancy (ticks)
system.tol2bus.reqLayer0.utilization              7.6                       # Layer utilization (%)
system.tol2bus.respLayer1.occupancy        5247808103                       # Layer occupancy (ticks)
system.tol2bus.respLayer1.utilization             0.9                       # Layer utilization (%)
system.tol2bus.respLayer0.occupancy       30072795677                       # Layer occupancy (ticks)
system.tol2bus.respLayer0.utilization             5.1                       # Layer utilization (%)
system.voltage_domain.voltage                       1                       # Voltage in Volts
system.clk_domain.clock                          1000                       # Clock period in ticks
system.l2.pwrStateResidencyTicks::UNDEFINED 1773065631500                       # Cumulative time (in ticks) in various power states
system.l2.demand_hits::.switch_cpus.inst     17638357                       # number of demand (read+write) hits
system.l2.demand_hits::.switch_cpus.data      1652867                       # number of demand (read+write) hits
system.l2.demand_hits::total                 19291224                       # number of demand (read+write) hits
system.l2.overall_hits::.switch_cpus.inst     17638357                       # number of overall hits
system.l2.overall_hits::.switch_cpus.data      1652867                       # number of overall hits
system.l2.overall_hits::total                19291224                       # number of overall hits
system.l2.demand_misses::.switch_cpus.inst      2397987                       # number of demand (read+write) misses
system.l2.demand_misses::.switch_cpus.data      1839289                       # number of demand (read+write) misses
system.l2.demand_misses::total                4237276                       # number of demand (read+write) misses
system.l2.overall_misses::.switch_cpus.inst      2397987                       # number of overall misses
system.l2.overall_misses::.switch_cpus.data      1839289                       # number of overall misses
system.l2.overall_misses::total               4237276                       # number of overall misses
system.l2.demand_miss_latency::.switch_cpus.inst 200530538000                       # number of demand (read+write) miss cycles
system.l2.demand_miss_latency::.switch_cpus.data 165297182500                       # number of demand (read+write) miss cycles
system.l2.demand_miss_latency::total     365827720500                       # number of demand (read+write) miss cycles
system.l2.overall_miss_latency::.switch_cpus.inst 200530538000                       # number of overall miss cycles
system.l2.overall_miss_latency::.switch_cpus.data 165297182500                       # number of overall miss cycles
system.l2.overall_miss_latency::total    365827720500                       # number of overall miss cycles
system.l2.demand_accesses::.switch_cpus.inst     20036344                       # number of demand (read+write) accesses
system.l2.demand_accesses::.switch_cpus.data      3492156                       # number of demand (read+write) accesses
system.l2.demand_accesses::total             23528500                       # number of demand (read+write) accesses
system.l2.overall_accesses::.switch_cpus.inst     20036344                       # number of overall (read+write) accesses
system.l2.overall_accesses::.switch_cpus.data      3492156                       # number of overall (read+write) accesses
system.l2.overall_accesses::total            23528500                       # number of overall (read+write) accesses
system.l2.demand_miss_rate::.switch_cpus.inst     0.119682                       # miss rate for demand accesses
system.l2.demand_miss_rate::.switch_cpus.data     0.526692                       # miss rate for demand accesses
system.l2.demand_miss_rate::total            0.180091                       # miss rate for demand accesses
system.l2.overall_miss_rate::.switch_cpus.inst     0.119682                       # miss rate for overall accesses
system.l2.overall_miss_rate::.switch_cpus.data     0.526692                       # miss rate for overall accesses
system.l2.overall_miss_rate::total           0.180091                       # miss rate for overall accesses
system.l2.demand_avg_miss_latency::.switch_cpus.inst 83624.530909                       # average overall miss latency
system.l2.demand_avg_miss_latency::.switch_cpus.data 89870.152271                       # average overall miss latency
system.l2.demand_avg_miss_latency::total 86335.589303                       # average overall miss latency
system.l2.overall_avg_miss_latency::.switch_cpus.inst 83624.530909                       # average overall miss latency
system.l2.overall_avg_miss_latency::.switch_cpus.data 89870.152271                       # average overall miss latency
system.l2.overall_avg_miss_latency::total 86335.589303                       # average overall miss latency
system.l2.blocked_cycles::no_mshrs                  0                       # number of cycles access was blocked
system.l2.blocked_cycles::no_targets                0                       # number of cycles access was blocked
system.l2.blocked::no_mshrs                         0                       # number of cycles access was blocked
system.l2.blocked::no_targets                       0                       # number of cycles access was blocked
system.l2.avg_blocked_cycles::no_mshrs            nan                       # average number of cycles each access was blocked
system.l2.avg_blocked_cycles::no_targets          nan                       # average number of cycles each access was blocked
system.l2.writebacks::.writebacks              654689                       # number of writebacks
system.l2.writebacks::total                    654689                       # number of writebacks
system.l2.demand_mshr_hits::.switch_cpus.inst          267                       # number of demand (read+write) MSHR hits
system.l2.demand_mshr_hits::.switch_cpus.data          102                       # number of demand (read+write) MSHR hits
system.l2.demand_mshr_hits::total                 369                       # number of demand (read+write) MSHR hits
system.l2.overall_mshr_hits::.switch_cpus.inst          267                       # number of overall MSHR hits
system.l2.overall_mshr_hits::.switch_cpus.data          102                       # number of overall MSHR hits
system.l2.overall_mshr_hits::total                369                       # number of overall MSHR hits
system.l2.demand_mshr_misses::.switch_cpus.inst      2397720                       # number of demand (read+write) MSHR misses
system.l2.demand_mshr_misses::.switch_cpus.data      1839187                       # number of demand (read+write) MSHR misses
system.l2.demand_mshr_misses::total           4236907                       # number of demand (read+write) MSHR misses
system.l2.overall_mshr_misses::.switch_cpus.inst      2397720                       # number of overall MSHR misses
system.l2.overall_mshr_misses::.switch_cpus.data      1839187                       # number of overall MSHR misses
system.l2.overall_mshr_misses::total          4236907                       # number of overall MSHR misses
system.l2.demand_mshr_miss_latency::.switch_cpus.inst 176537986504                       # number of demand (read+write) MSHR miss cycles
system.l2.demand_mshr_miss_latency::.switch_cpus.data 146899381003                       # number of demand (read+write) MSHR miss cycles
system.l2.demand_mshr_miss_latency::total 323437367507                       # number of demand (read+write) MSHR miss cycles
system.l2.overall_mshr_miss_latency::.switch_cpus.inst 176537986504                       # number of overall MSHR miss cycles
system.l2.overall_mshr_miss_latency::.switch_cpus.data 146899381003                       # number of overall MSHR miss cycles
system.l2.overall_mshr_miss_latency::total 323437367507                       # number of overall MSHR miss cycles
system.l2.demand_mshr_miss_rate::.switch_cpus.inst     0.119669                       # mshr miss rate for demand accesses
system.l2.demand_mshr_miss_rate::.switch_cpus.data     0.526662                       # mshr miss rate for demand accesses
system.l2.demand_mshr_miss_rate::total       0.180076                       # mshr miss rate for demand accesses
system.l2.overall_mshr_miss_rate::.switch_cpus.inst     0.119669                       # mshr miss rate for overall accesses
system.l2.overall_mshr_miss_rate::.switch_cpus.data     0.526662                       # mshr miss rate for overall accesses
system.l2.overall_mshr_miss_rate::total      0.180076                       # mshr miss rate for overall accesses
system.l2.demand_avg_mshr_miss_latency::.switch_cpus.inst 73627.440445                       # average overall mshr miss latency
system.l2.demand_avg_mshr_miss_latency::.switch_cpus.data 79871.911341                       # average overall mshr miss latency
system.l2.demand_avg_mshr_miss_latency::total 76338.085190                       # average overall mshr miss latency
system.l2.overall_avg_mshr_miss_latency::.switch_cpus.inst 73627.440445                       # average overall mshr miss latency
system.l2.overall_avg_mshr_miss_latency::.switch_cpus.data 79871.911341                       # average overall mshr miss latency
system.l2.overall_avg_mshr_miss_latency::total 76338.085190                       # average overall mshr miss latency
system.l2.replacements                        4860076                       # number of replacements
system.l2.WritebackDirty_hits::.writebacks      1383255                       # number of WritebackDirty hits
system.l2.WritebackDirty_hits::total          1383255                       # number of WritebackDirty hits
system.l2.WritebackDirty_accesses::.writebacks      1383255                       # number of WritebackDirty accesses(hits+misses)
system.l2.WritebackDirty_accesses::total      1383255                       # number of WritebackDirty accesses(hits+misses)
system.l2.WritebackClean_hits::.writebacks     20021546                       # number of WritebackClean hits
system.l2.WritebackClean_hits::total         20021546                       # number of WritebackClean hits
system.l2.WritebackClean_accesses::.writebacks     20021546                       # number of WritebackClean accesses(hits+misses)
system.l2.WritebackClean_accesses::total     20021546                       # number of WritebackClean accesses(hits+misses)
system.l2.CleanEvict_mshr_misses::.writebacks       469352                       # number of CleanEvict MSHR misses
system.l2.CleanEvict_mshr_misses::total        469352                       # number of CleanEvict MSHR misses
system.l2.CleanEvict_mshr_miss_rate::.writebacks          inf                       # mshr miss rate for CleanEvict accesses
system.l2.CleanEvict_mshr_miss_rate::total          inf                       # mshr miss rate for CleanEvict accesses
system.l2.UpgradeReq_hits::.switch_cpus.data         3562                       # number of UpgradeReq hits
system.l2.UpgradeReq_hits::total                 3562                       # number of UpgradeReq hits
system.l2.UpgradeReq_misses::.switch_cpus.data         3713                       # number of UpgradeReq misses
system.l2.UpgradeReq_misses::total               3713                       # number of UpgradeReq misses
system.l2.UpgradeReq_miss_latency::.switch_cpus.data     14559000                       # number of UpgradeReq miss cycles
system.l2.UpgradeReq_miss_latency::total     14559000                       # number of UpgradeReq miss cycles
system.l2.UpgradeReq_accesses::.switch_cpus.data         7275                       # number of UpgradeReq accesses(hits+misses)
system.l2.UpgradeReq_accesses::total             7275                       # number of UpgradeReq accesses(hits+misses)
system.l2.UpgradeReq_miss_rate::.switch_cpus.data     0.510378                       # miss rate for UpgradeReq accesses
system.l2.UpgradeReq_miss_rate::total        0.510378                       # miss rate for UpgradeReq accesses
system.l2.UpgradeReq_avg_miss_latency::.switch_cpus.data  3921.088069                       # average UpgradeReq miss latency
system.l2.UpgradeReq_avg_miss_latency::total  3921.088069                       # average UpgradeReq miss latency
system.l2.UpgradeReq_mshr_misses::.switch_cpus.data         3713                       # number of UpgradeReq MSHR misses
system.l2.UpgradeReq_mshr_misses::total          3713                       # number of UpgradeReq MSHR misses
system.l2.UpgradeReq_mshr_miss_latency::.switch_cpus.data     73337000                       # number of UpgradeReq MSHR miss cycles
system.l2.UpgradeReq_mshr_miss_latency::total     73337000                       # number of UpgradeReq MSHR miss cycles
system.l2.UpgradeReq_mshr_miss_rate::.switch_cpus.data     0.510378                       # mshr miss rate for UpgradeReq accesses
system.l2.UpgradeReq_mshr_miss_rate::total     0.510378                       # mshr miss rate for UpgradeReq accesses
system.l2.UpgradeReq_avg_mshr_miss_latency::.switch_cpus.data 19751.413951                       # average UpgradeReq mshr miss latency
system.l2.UpgradeReq_avg_mshr_miss_latency::total 19751.413951                       # average UpgradeReq mshr miss latency
system.l2.ReadExReq_hits::.switch_cpus.data       389824                       # number of ReadExReq hits
system.l2.ReadExReq_hits::total                389824                       # number of ReadExReq hits
system.l2.ReadExReq_misses::.switch_cpus.data       465698                       # number of ReadExReq misses
system.l2.ReadExReq_misses::total              465698                       # number of ReadExReq misses
system.l2.ReadExReq_miss_latency::.switch_cpus.data  37889693500                       # number of ReadExReq miss cycles
system.l2.ReadExReq_miss_latency::total   37889693500                       # number of ReadExReq miss cycles
system.l2.ReadExReq_accesses::.switch_cpus.data       855522                       # number of ReadExReq accesses(hits+misses)
system.l2.ReadExReq_accesses::total            855522                       # number of ReadExReq accesses(hits+misses)
system.l2.ReadExReq_miss_rate::.switch_cpus.data     0.544344                       # miss rate for ReadExReq accesses
system.l2.ReadExReq_miss_rate::total         0.544344                       # miss rate for ReadExReq accesses
system.l2.ReadExReq_avg_miss_latency::.switch_cpus.data 81361.082719                       # average ReadExReq miss latency
system.l2.ReadExReq_avg_miss_latency::total 81361.082719                       # average ReadExReq miss latency
system.l2.ReadExReq_mshr_hits::.switch_cpus.data           25                       # number of ReadExReq MSHR hits
system.l2.ReadExReq_mshr_hits::total               25                       # number of ReadExReq MSHR hits
system.l2.ReadExReq_mshr_misses::.switch_cpus.data       465673                       # number of ReadExReq MSHR misses
[...]
system.cpu.dtb_walker_cache.avg_blocked_cycles::no_mshrs          nan                       # average number of cycles each access was blocked
system.cpu.dtb_walker_cache.avg_blocked_cycles::no_targets          nan                       # average number of cycles each access was blocked
system.cpu.dtb_walker_cache.replacements            0                       # number of replacements
system.cpu.dtb_walker_cache.tags.pwrStateResidencyTicks::UNDEFINED 1773065631500                       # Cumulative time (in ticks) in various power states
system.cpu.dtb_walker_cache.tags.tagsinuse            0                       # Cycle average of tags in use
system.cpu.dtb_walker_cache.tags.total_refs            0                       # Total number of references to valid blocks.
system.cpu.dtb_walker_cache.tags.sampled_refs            0                       # Sample count of references to valid blocks.
system.cpu.dtb_walker_cache.tags.avg_refs          nan                       # Average number of references to valid blocks.
system.cpu.dtb_walker_cache.tags.warmup_cycle            0                       # Cycle when the warmup percentage was hit.
system.cpu.dtb_walker_cache.tags.tag_accesses            0                       # Number of tag accesses
system.cpu.dtb_walker_cache.tags.data_accesses            0                       # Number of data accesses
system.cpu.dcache.pwrStateResidencyTicks::UNDEFINED 1773065631500                       # Cumulative time (in ticks) in various power states
system.cpu.dcache.demand_hits::.cpu.data    466705300                       # number of demand (read+write) hits
system.cpu.dcache.demand_hits::.switch_cpus.data    266549848                       # number of demand (read+write) hits
system.cpu.dcache.demand_hits::total        733255148                       # number of demand (read+write) hits
system.cpu.dcache.overall_hits::.cpu.data    466717835                       # number of overall hits
system.cpu.dcache.overall_hits::.switch_cpus.data    266852383                       # number of overall hits
system.cpu.dcache.overall_hits::total       733570218                       # number of overall hits
system.cpu.dcache.demand_misses::.cpu.data      6104649                       # number of demand (read+write) misses
system.cpu.dcache.demand_misses::.switch_cpus.data      5331555                       # number of demand (read+write) misses
system.cpu.dcache.demand_misses::total       11436204                       # number of demand (read+write) misses
system.cpu.dcache.overall_misses::.cpu.data      6110750                       # number of overall misses
system.cpu.dcache.overall_misses::.switch_cpus.data      5368360                       # number of overall misses
system.cpu.dcache.overall_misses::total      11479110                       # number of overall misses
system.cpu.dcache.demand_miss_latency::.switch_cpus.data 280795683517                       # number of demand (read+write) miss cycles
system.cpu.dcache.demand_miss_latency::total 280795683517                       # number of demand (read+write) miss cycles
system.cpu.dcache.overall_miss_latency::.switch_cpus.data 280795683517                       # number of overall miss cycles
system.cpu.dcache.overall_miss_latency::total 280795683517                       # number of overall miss cycles
system.cpu.dcache.demand_accesses::.cpu.data    472809949                       # number of demand (read+write) accesses
system.cpu.dcache.demand_accesses::.switch_cpus.data    271881403                       # number of demand (read+write) accesses
system.cpu.dcache.demand_accesses::total    744691352                       # number of demand (read+write) accesses
system.cpu.dcache.overall_accesses::.cpu.data    472828585                       # number of overall (read+write) accesses
system.cpu.dcache.overall_accesses::.switch_cpus.data    272220743                       # number of overall (read+write) accesses
system.cpu.dcache.overall_accesses::total    745049328                       # number of overall (read+write) accesses
system.cpu.dcache.demand_miss_rate::.cpu.data     0.012911                       # miss rate for demand accesses
system.cpu.dcache.demand_miss_rate::.switch_cpus.data     0.019610                       # miss rate for demand accesses
system.cpu.dcache.demand_miss_rate::total     0.015357                       # miss rate for demand accesses
system.cpu.dcache.overall_miss_rate::.cpu.data     0.012924                       # miss rate for overall accesses
system.cpu.dcache.overall_miss_rate::.switch_cpus.data     0.019721                       # miss rate for overall accesses
system.cpu.dcache.overall_miss_rate::total     0.015407                       # miss rate for overall accesses
system.cpu.dcache.demand_avg_miss_latency::.switch_cpus.data 52666.751729                       # average overall miss latency
system.cpu.dcache.demand_avg_miss_latency::total 24553.224437                       # average overall miss latency
system.cpu.dcache.overall_avg_miss_latency::.switch_cpus.data 52305.673151                       # average overall miss latency
system.cpu.dcache.overall_avg_miss_latency::total 24461.450715                       # average overall miss latency
system.cpu.dcache.blocked_cycles::no_mshrs      3122919                       # number of cycles access was blocked
system.cpu.dcache.blocked_cycles::no_targets          778                       # number of cycles access was blocked
system.cpu.dcache.blocked::no_mshrs             75928                       # number of cycles access was blocked
system.cpu.dcache.blocked::no_targets              16                       # number of cycles access was blocked
system.cpu.dcache.avg_blocked_cycles::no_mshrs    41.130005                       # average number of cycles each access was blocked
system.cpu.dcache.avg_blocked_cycles::no_targets    48.625000                       # average number of cycles each access was blocked
system.cpu.dcache.writebacks::.writebacks      4101822                       # number of writebacks
system.cpu.dcache.writebacks::total           4101822                       # number of writebacks
system.cpu.dcache.demand_mshr_hits::.switch_cpus.data      1843502                       # number of demand (read+write) MSHR hits
system.cpu.dcache.demand_mshr_hits::total      1843502                       # number of demand (read+write) MSHR hits
system.cpu.dcache.overall_mshr_hits::.switch_cpus.data      1843502                       # number of overall MSHR hits
system.cpu.dcache.overall_mshr_hits::total      1843502                       # number of overall MSHR hits
system.cpu.dcache.demand_mshr_misses::.switch_cpus.data      3488053                       # number of demand (read+write) MSHR misses
system.cpu.dcache.demand_mshr_misses::total      3488053                       # number of demand (read+write) MSHR misses
system.cpu.dcache.overall_mshr_misses::.switch_cpus.data      3499369                       # number of overall MSHR misses
system.cpu.dcache.overall_mshr_misses::total      3499369                       # number of overall MSHR misses
system.cpu.dcache.demand_mshr_miss_latency::.switch_cpus.data 187627834624                       # number of demand (read+write) MSHR miss cycles
system.cpu.dcache.demand_mshr_miss_latency::total 187627834624                       # number of demand (read+write) MSHR miss cycles
system.cpu.dcache.overall_mshr_miss_latency::.switch_cpus.data 188337379624                       # number of overall MSHR miss cycles
system.cpu.dcache.overall_mshr_miss_latency::total 188337379624                       # number of overall MSHR miss cycles
system.cpu.dcache.demand_mshr_miss_rate::.switch_cpus.data     0.012829                       # mshr miss rate for demand accesses
system.cpu.dcache.demand_mshr_miss_rate::total     0.004684                       # mshr miss rate for demand accesses
system.cpu.dcache.overall_mshr_miss_rate::.switch_cpus.data     0.012855                       # mshr miss rate for overall accesses
system.cpu.dcache.overall_mshr_miss_rate::total     0.004697                       # mshr miss rate for overall accesses
system.cpu.dcache.demand_avg_mshr_miss_latency::.switch_cpus.data 53791.566419                       # average overall mshr miss latency
system.cpu.dcache.demand_avg_mshr_miss_latency::total 53791.566419                       # average overall mshr miss latency
system.cpu.dcache.overall_avg_mshr_miss_latency::.switch_cpus.data 53820.382939                       # average overall mshr miss latency
system.cpu.dcache.overall_avg_mshr_miss_latency::total 53820.382939                       # average overall mshr miss latency
system.cpu.dcache.replacements                9602394                       # number of replacements
system.cpu.dcache.ReadReq_hits::.cpu.data    289269324                       # number of ReadReq hits
system.cpu.dcache.ReadReq_hits::.switch_cpus.data    178680859                       # number of ReadReq hits
system.cpu.dcache.ReadReq_hits::total       467950183                       # number of ReadReq hits
system.cpu.dcache.ReadReq_misses::.cpu.data      4306224                       # number of ReadReq misses
system.cpu.dcache.ReadReq_misses::.switch_cpus.data      4448335                       # number of ReadReq misses
system.cpu.dcache.ReadReq_misses::total       8754559                       # number of ReadReq misses
system.cpu.dcache.ReadReq_miss_latency::.switch_cpus.data 235647890500                       # number of ReadReq miss cycles
system.cpu.dcache.ReadReq_miss_latency::total 235647890500                       # number of ReadReq miss cycles
system.cpu.dcache.ReadReq_accesses::.cpu.data    293575548                       # number of ReadReq accesses(hits+misses)
system.cpu.dcache.ReadReq_accesses::.switch_cpus.data    183129194                       # number of ReadReq accesses(hits+misses)
system.cpu.dcache.ReadReq_accesses::total    476704742                       # number of ReadReq accesses(hits+misses)
system.cpu.dcache.ReadReq_miss_rate::.cpu.data     0.014668                       # miss rate for ReadReq accesses
system.cpu.dcache.ReadReq_miss_rate::.switch_cpus.data     0.024291                       # miss rate for ReadReq accesses
system.cpu.dcache.ReadReq_miss_rate::total     0.018365                       # miss rate for ReadReq accesses
system.cpu.dcache.ReadReq_avg_miss_latency::.switch_cpus.data 52974.402895                       # average ReadReq miss latency
system.cpu.dcache.ReadReq_avg_miss_latency::total 26917.162875                       # average ReadReq miss latency
system.cpu.dcache.ReadReq_mshr_hits::.switch_cpus.data      1820708                       # number of ReadReq MSHR hits
system.cpu.dcache.ReadReq_mshr_hits::total      1820708                       # number of ReadReq MSHR hits
system.cpu.dcache.ReadReq_mshr_misses::.switch_cpus.data      2627627                       # number of ReadReq MSHR misses
system.cpu.dcache.ReadReq_mshr_misses::total      2627627                       # number of ReadReq MSHR misses
system.cpu.dcache.ReadReq_mshr_miss_latency::.switch_cpus.data 144215602500                       # number of ReadReq MSHR miss cycles
system.cpu.dcache.ReadReq_mshr_miss_latency::total 144215602500                       # number of ReadReq MSHR miss cycles
system.cpu.dcache.ReadReq_mshr_miss_rate::.switch_cpus.data     0.014348                       # mshr miss rate for ReadReq accesses
system.cpu.dcache.ReadReq_mshr_miss_rate::total     0.005512                       # mshr miss rate for ReadReq accesses
system.cpu.dcache.ReadReq_avg_mshr_miss_latency::.switch_cpus.data 54884.350975                       # average ReadReq mshr miss latency
system.cpu.dcache.ReadReq_avg_mshr_miss_latency::total 54884.350975                       # average ReadReq mshr miss latency
system.cpu.dcache.WriteReq_hits::.cpu.data    177435976                       # number of WriteReq hits
system.cpu.dcache.WriteReq_hits::.switch_cpus.data     87868989                       # number of WriteReq hits
system.cpu.dcache.WriteReq_hits::total      265304965                       # number of WriteReq hits
system.cpu.dcache.WriteReq_misses::.cpu.data      1798425                       # number of WriteReq misses
system.cpu.dcache.WriteReq_misses::.switch_cpus.data       883220                       # number of WriteReq misses
system.cpu.dcache.WriteReq_misses::total      2681645                       # number of WriteReq misses
system.cpu.dcache.WriteReq_miss_latency::.switch_cpus.data  45147793017                       # number of WriteReq miss cycles
system.cpu.dcache.WriteReq_miss_latency::total  45147793017                       # number of WriteReq miss cycles
system.cpu.dcache.WriteReq_accesses::.cpu.data    179234401                       # number of WriteReq accesses(hits+misses)
system.cpu.dcache.WriteReq_accesses::.switch_cpus.data     88752209                       # number of WriteReq accesses(hits+misses)
system.cpu.dcache.WriteReq_accesses::total    267986610                       # number of WriteReq accesses(hits+misses)
system.cpu.dcache.WriteReq_miss_rate::.cpu.data     0.010034                       # miss rate for WriteReq accesses
system.cpu.dcache.WriteReq_miss_rate::.switch_cpus.data     0.009952                       # miss rate for WriteReq accesses
system.cpu.dcache.WriteReq_miss_rate::total     0.010007                       # miss rate for WriteReq accesses
system.cpu.dcache.WriteReq_avg_miss_latency::.switch_cpus.data 51117.267518                       # average WriteReq miss latency
system.cpu.dcache.WriteReq_avg_miss_latency::total 16835.857474                       # average WriteReq miss latency
system.cpu.dcache.WriteReq_mshr_hits::.switch_cpus.data        22794                       # number of WriteReq MSHR hits
system.cpu.dcache.WriteReq_mshr_hits::total        22794                       # number of WriteReq MSHR hits
system.cpu.dcache.WriteReq_mshr_misses::.switch_cpus.data       860426                       # number of WriteReq MSHR misses
system.cpu.dcache.WriteReq_mshr_misses::total       860426                       # number of WriteReq MSHR misses
system.cpu.dcache.WriteReq_mshr_miss_latency::.switch_cpus.data  43412232124                       # number of WriteReq MSHR miss cycles
system.cpu.dcache.WriteReq_mshr_miss_latency::total  43412232124                       # number of WriteReq MSHR miss cycles
system.cpu.dcache.WriteReq_mshr_miss_rate::.switch_cpus.data     0.009695                       # mshr miss rate for WriteReq accesses
system.cpu.dcache.WriteReq_mshr_miss_rate::total     0.003211                       # mshr miss rate for WriteReq accesses
system.cpu.dcache.WriteReq_avg_mshr_miss_latency::.switch_cpus.data 50454.347177                       # average WriteReq mshr miss latency
system.cpu.dcache.WriteReq_avg_mshr_miss_latency::total 50454.347177                       # average WriteReq mshr miss latency
system.cpu.dcache.SoftPFReq_hits::.cpu.data        12535                       # number of SoftPFReq hits
system.cpu.dcache.SoftPFReq_hits::.switch_cpus.data       302535                       # number of SoftPFReq hits
system.cpu.dcache.SoftPFReq_hits::total        315070                       # number of SoftPFReq hits
system.cpu.dcache.SoftPFReq_misses::.cpu.data         6101                       # number of SoftPFReq misses
system.cpu.dcache.SoftPFReq_misses::.switch_cpus.data        36805                       # number of SoftPFReq misses
system.cpu.dcache.SoftPFReq_misses::total        42906                       # number of SoftPFReq misses
system.cpu.dcache.SoftPFReq_accesses::.cpu.data        18636                       # number of SoftPFReq accesses(hits+misses)
system.cpu.dcache.SoftPFReq_accesses::.switch_cpus.data       339340                       # number of SoftPFReq accesses(hits+misses)
system.cpu.dcache.SoftPFReq_accesses::total       357976                       # number of SoftPFReq accesses(hits+misses)
system.cpu.dcache.SoftPFReq_miss_rate::.cpu.data     0.327377                       # miss rate for SoftPFReq accesses
system.cpu.dcache.SoftPFReq_miss_rate::.switch_cpus.data     0.108461                       # miss rate for SoftPFReq accesses
system.cpu.dcache.SoftPFReq_miss_rate::total     0.119857                       # miss rate for SoftPFReq accesses
system.cpu.dcache.SoftPFReq_mshr_misses::.switch_cpus.data        11316                       # number of SoftPFReq MSHR misses
system.cpu.dcache.SoftPFReq_mshr_misses::total        11316                       # number of SoftPFReq MSHR misses
system.cpu.dcache.SoftPFReq_mshr_miss_latency::.switch_cpus.data    709545000                       # number of SoftPFReq MSHR miss cycles
system.cpu.dcache.SoftPFReq_mshr_miss_latency::total    709545000                       # number of SoftPFReq MSHR miss cycles
system.cpu.dcache.SoftPFReq_mshr_miss_rate::.switch_cpus.data     0.033347                       # mshr miss rate for SoftPFReq accesses
system.cpu.dcache.SoftPFReq_mshr_miss_rate::total     0.031611                       # mshr miss rate for SoftPFReq accesses
system.cpu.dcache.SoftPFReq_avg_mshr_miss_latency::.switch_cpus.data 62702.810180                       # average SoftPFReq mshr miss latency
system.cpu.dcache.SoftPFReq_avg_mshr_miss_latency::total 62702.810180                       # average SoftPFReq mshr miss latency
system.cpu.dcache.tags.pwrStateResidencyTicks::UNDEFINED 1773065631500                       # Cumulative time (in ticks) in various power states
system.cpu.dcache.tags.tagsinuse           511.995007                       # Cycle average of tags in use
system.cpu.dcache.tags.total_refs           741150317                       # Total number of references to valid blocks.
system.cpu.dcache.tags.sampled_refs           9602394                       # Sample count of references to valid blocks.
system.cpu.dcache.tags.avg_refs             77.183910                       # Average number of references to valid blocks.
system.cpu.dcache.tags.warmup_cycle              1000                       # Cycle when the warmup percentage was hit.
system.cpu.dcache.tags.occ_blocks::.cpu.data   341.776683                       # Average occupied blocks per requestor
system.cpu.dcache.tags.occ_blocks::.switch_cpus.data   170.218325                       # Average occupied blocks per requestor
system.cpu.dcache.tags.occ_percent::.cpu.data     0.667533                       # Average percentage of cache occupancy
system.cpu.dcache.tags.occ_percent::.switch_cpus.data     0.332458                       # Average percentage of cache occupancy
system.cpu.dcache.tags.occ_percent::total     0.999990                       # Average percentage of cache occupancy
system.cpu.dcache.tags.occ_task_id_blocks::1024          512                       # Occupied blocks per task id
system.cpu.dcache.tags.age_task_id_blocks_1024::0           78                       # Occupied blocks per task id
system.cpu.dcache.tags.age_task_id_blocks_1024::1          318                       # Occupied blocks per task id
system.cpu.dcache.tags.age_task_id_blocks_1024::2           96                       # Occupied blocks per task id
system.cpu.dcache.tags.age_task_id_blocks_1024::3           13                       # Occupied blocks per task id
system.cpu.dcache.tags.age_task_id_blocks_1024::4            7                       # Occupied blocks per task id
system.cpu.dcache.tags.occ_task_id_percent::1024            1                       # Percentage of cache occupancy per task id
system.cpu.dcache.tags.tag_accesses        2989800218                       # Number of tag accesses
system.cpu.dcache.tags.data_accesses       2989800218                       # Number of data accesses

---------- End Simulation Statistics   ----------
