
---------- Begin Simulation Statistics ----------
final_tick                               2466440236000                       # Number of ticks from beginning of simulation (restored from checkpoints and never reset)
host_inst_rate                                  77057                       # Simulator instruction rate (inst/s)
host_mem_usage                                4520828                       # Number of bytes of host memory used
host_op_rate                                   153984                       # Simulator op (including micro ops) rate (op/s)
host_seconds                                 19466.10                       # Real time elapsed on the host
host_tick_rate                               66892549                       # Simulator tick rate (ticks/s)
sim_freq                                 1000000000000                       # Frequency of simulated ticks
sim_insts                                  1500000001                       # Number of instructions simulated
sim_ops                                    2997465459                       # Number of ops (including micro ops) simulated
sim_seconds                                  1.302137                       # Number of seconds simulated
sim_ticks                                1302137227500                       # Number of ticks simulated
system.cpu.committedInsts                           0                       # Number of instructions committed
system.cpu.committedOps                             0                       # Number of ops (including micro ops) committed
system.cpu.dtb.rdAccesses                           0                       # TLB accesses on read requests
system.cpu.dtb.rdMisses                             0                       # TLB misses on read requests
system.cpu.dtb.wrAccesses                           0                       # TLB accesses on write requests
system.cpu.dtb.wrMisses                             0                       # TLB misses on write requests
system.cpu.idle_fraction                            0                       # Percentage of idle cycles
system.cpu.itb.rdAccesses                           0                       # TLB accesses on read requests
system.cpu.itb.rdMisses                             0                       # TLB misses on read requests
system.cpu.itb.wrAccesses                           0                       # TLB accesses on write requests
system.cpu.itb.wrMisses                             0                       # TLB misses on write requests
system.cpu.not_idle_fraction                        1                       # Percentage of non-idle cycles
system.cpu.numCycles                                0                       # number of cpu cycles simulated
system.cpu.numWorkItemsCompleted                    0                       # number of work items this cpu completed
system.cpu.numWorkItemsStarted                      0                       # number of work items this cpu started
system.cpu.num_busy_cycles                          0                       # Number of busy cycles
system.cpu.num_conditional_control_insts            0                       # number of instructions that are conditional controls
system.cpu.num_fp_alu_accesses                      0                       # Number of float alu accesses
system.cpu.num_fp_insts                             0                       # number of float instructions
system.cpu.num_fp_register_reads                    0                       # number of times the floating registers were read
system.cpu.num_fp_register_writes                   0                       # number of times the floating registers were written
system.cpu.num_func_calls                           0                       # number of times a function call or return occured
system.cpu.num_idle_cycles                          0                       # Number of idle cycles
system.cpu.num_int_alu_accesses                     0                       # Number of integer alu accesses
system.cpu.num_int_insts                            0                       # number of integer instructions
system.cpu.num_int_register_reads                   0                       # number of times the integer registers were read
system.cpu.num_int_register_writes                  0                       # number of times the integer registers were written
system.cpu.num_load_insts                           0                       # Number of load instructions
system.cpu.num_mem_refs                             0                       # number of memory refs
system.cpu.num_store_insts                          0                       # Number of store instructions
system.cpu.num_vec_alu_accesses                     0                       # Number of vector alu accesses
system.cpu.num_vec_insts                            0                       # number of vector instructions
system.cpu.num_vec_register_reads                   0                       # number of times the vector registers were read
system.cpu.num_vec_register_writes                  0                       # number of times the vector registers were written
system.cpu.op_class::No_OpClass                     0                       # Class of executed instruction
system.cpu.op_class::IntAlu                         0                       # Class of executed instruction
system.cpu.op_class::IntMult                        0                       # Class of executed instruction
system.cpu.op_class::IntDiv                         0                       # Class of executed instruction
system.cpu.op_class::FloatAdd                       0                       # Class of executed instruction
system.cpu.op_class::FloatCmp                       0                       # Class of executed instruction
system.cpu.op_class::FloatCvt                       0                       # Class of executed instruction
system.cpu.op_class::FloatMult                      0                       # Class of executed instruction
system.cpu.op_class::FloatMultAcc                   0                       # Class of executed instruction
system.cpu.op_class::FloatDiv                       0                       # Class of executed instruction
system.cpu.op_class::FloatMisc                      0                       # Class of executed instruction
system.cpu.op_class::FloatSqrt                      0                       # Class of executed instruction
system.cpu.op_class::SimdAdd                        0                       # Class of executed instruction
system.cpu.op_class::SimdAddAcc                     0                       # Class of executed instruction
system.cpu.op_class::SimdAlu                        0                       # Class of executed instruction
system.cpu.op_class::SimdCmp                        0                       # Class of executed instruction
system.cpu.op_class::SimdCvt                        0                       # Class of executed instruction
system.cpu.op_class::SimdMisc                       0                       # Class of executed instruction
system.cpu.op_class::SimdMult                       0                       # Class of executed instruction
system.cpu.op_class::SimdMultAcc                    0                       # Class of executed instruction
system.cpu.op_class::SimdShift                      0                       # Class of executed instruction
system.cpu.op_class::SimdShiftAcc                   0                       # Class of executed instruction
system.cpu.op_class::SimdDiv                        0                       # Class of executed instruction
system.cpu.op_class::SimdSqrt                       0                       # Class of executed instruction
system.cpu.op_class::SimdFloatAdd                   0                       # Class of executed instruction
system.cpu.op_class::SimdFloatAlu                   0                       # Class of executed instruction
system.cpu.op_class::SimdFloatCmp                   0                       # Class of executed instruction
system.cpu.op_class::SimdFloatCvt                   0                       # Class of executed instruction
system.cpu.op_class::SimdFloatDiv                   0                       # Class of executed instruction
system.cpu.op_class::SimdFloatMisc                  0                       # Class of executed instruction
system.cpu.op_class::SimdFloatMult                  0                       # Class of executed instruction
system.cpu.op_class::SimdFloatMultAcc               0                       # Class of executed instruction
system.cpu.op_class::SimdFloatSqrt                  0                       # Class of executed instruction
system.cpu.op_class::SimdReduceAdd                  0                       # Class of executed instruction
system.cpu.op_class::SimdReduceAlu                  0                       # Class of executed instruction
system.cpu.op_class::SimdReduceCmp                  0                       # Class of executed instruction
system.cpu.op_class::SimdFloatReduceAdd             0                       # Class of executed instruction
system.cpu.op_class::SimdFloatReduceCmp             0                       # Class of executed instruction
system.cpu.op_class::SimdAes                        0                       # Class of executed instruction
system.cpu.op_class::SimdAesMix                     0                       # Class of executed instruction
system.cpu.op_class::SimdSha1Hash                   0                       # Class of executed instruction
system.cpu.op_class::SimdSha1Hash2                  0                       # Class of executed instruction
system.cpu.op_class::SimdSha256Hash                 0                       # Class of executed instruction
system.cpu.op_class::SimdSha256Hash2                0                       # Class of executed instruction
system.cpu.op_class::SimdShaSigma2                  0                       # Class of executed instruction
system.cpu.op_class::SimdShaSigma3                  0                       # Class of executed instruction
system.cpu.op_class::SimdPredAlu                    0                       # Class of executed instruction
system.cpu.op_class::MemRead                        0                       # Class of executed instruction
system.cpu.op_class::MemWrite                       0                       # Class of executed instruction
system.cpu.op_class::FloatMemRead                   0                       # Class of executed instruction
system.cpu.op_class::FloatMemWrite                  0                       # Class of executed instruction
system.cpu.op_class::IprAccess                      0                       # Class of executed instruction
system.cpu.op_class::InstPrefetch                   0                       # Class of executed instruction
system.cpu.op_class::total                          0                       # Class of executed instruction
system.cpu.workload.numSyscalls                    68                       # Number of system calls
system.membus.snoop_filter.hit_multi_requests            0                       # Number of requests hitting in the snoop filter with multiple (>1) holders of the requested data.
system.membus.snoop_filter.hit_multi_snoops            0                       # Number of snoops hitting in the snoop filter with multiple (>1) holders of the requested data.
system.membus.snoop_filter.hit_single_requests     15523549                       # Number of requests hitting in the snoop filter with a single holder of the requested data.
system.membus.snoop_filter.hit_single_snoops            0                       # Number of snoops hitting in the snoop filter with a single holder of the requested data.
system.membus.snoop_filter.tot_requests      31039872                       # Total number of requests made to the snoop filter.
system.membus.snoop_filter.tot_snoops               0                       # Total number of snoops made to the snoop filter.
system.switch_cpus.branchPred.BTBCorrect            0                       # Number of correct BTB predictions (this stat may not work properly.
system.switch_cpus.branchPred.BTBHitPct      0.000000                       # BTB Hit Percentage
system.switch_cpus.branchPred.BTBHits               0                       # Number of BTB hits
system.switch_cpus.branchPred.BTBLookups    259867323                       # Number of BTB lookups
system.switch_cpus.branchPred.RASInCorrect        74563                       # Number of incorrect RAS predictions.
system.switch_cpus.branchPred.condIncorrect     35921443                       # Number of conditional branches incorrect
system.switch_cpus.branchPred.condPredicted    218256089                       # Number of conditional branches predicted
system.switch_cpus.branchPred.indirectHits     78434524                       # Number of indirect target hits.
system.switch_cpus.branchPred.indirectLookups    259867323                       # Number of indirect predictor lookups.
system.switch_cpus.branchPred.indirectMisses    181432799                       # Number of indirect misses.
system.switch_cpus.branchPred.lookups       304977302                       # Number of BP lookups
system.switch_cpus.branchPred.usedRAS        27364828                       # Number of times the RAS was used to get a target.
system.switch_cpus.branchPredindirectMispredicted     33893272                       # Number of mispredicted indirect branches.
system.switch_cpus.cc_regfile_reads         738325192                       # number of cc regfile reads
system.switch_cpus.cc_regfile_writes        431374430                       # number of cc regfile writes
system.switch_cpus.commit.amos                      0                       # Number of atomic instructions committed
system.switch_cpus.commit.branchMispredicts     35957315                       # The number of times a branch was mispredicted
system.switch_cpus.commit.branches          107249826                       # Number of branches committed
system.switch_cpus.commit.bw_lim_events      45581394                       # number cycles where commit BW limit reached
system.switch_cpus.commit.commitNonSpecStalls        22523                       # The number of times commit has been forced to stall to communicate backwards
system.switch_cpus.commit.commitSquashedInsts   1143645304                       # The number of squashed insts skipped by commit
system.switch_cpus.commit.committedInsts    500000001                       # Number of instructions committed
system.switch_cpus.commit.committedOps     1001239997                       # Number of ops (including micro ops) committed
system.switch_cpus.commit.committed_per_cycle::samples   1527466447                       # Number of insts commited each cycle
system.switch_cpus.commit.committed_per_cycle::mean     0.655491                       # Number of insts commited each cycle
system.switch_cpus.commit.committed_per_cycle::stdev     1.733773                       # Number of insts commited each cycle
system.switch_cpus.commit.committed_per_cycle::underflows            0      0.00%      0.00% # Number of insts commited each cycle
system.switch_cpus.commit.committed_per_cycle::0   1243503266     81.41%     81.41% # Number of insts commited each cycle
system.switch_cpus.commit.committed_per_cycle::1     73592277      4.82%     86.23% # Number of insts commited each cycle
system.switch_cpus.commit.committed_per_cycle::2     52339961      3.43%     89.65% # Number of insts commited each cycle
system.switch_cpus.commit.committed_per_cycle::3     53474392      3.50%     93.15% # Number of insts commited each cycle
system.switch_cpus.commit.committed_per_cycle::4     22823755      1.49%     94.65% # Number of insts commited each cycle
system.switch_cpus.commit.committed_per_cycle::5     16893543      1.11%     95.76% # Number of insts commited each cycle
system.switch_cpus.commit.committed_per_cycle::6     12674280      0.83%     96.58% # Number of insts commited each cycle
system.switch_cpus.commit.committed_per_cycle::7      6583579      0.43%     97.02% # Number of insts commited each cycle
system.switch_cpus.commit.committed_per_cycle::8     45581394      2.98%    100.00% # Number of insts commited each cycle
system.switch_cpus.commit.committed_per_cycle::overflows            0      0.00%    100.00% # Number of insts commited each cycle
system.switch_cpus.commit.committed_per_cycle::min_value            0                       # Number of insts commited each cycle
system.switch_cpus.commit.committed_per_cycle::max_value            8                       # Number of insts commited each cycle
system.switch_cpus.commit.committed_per_cycle::total   1527466447                       # Number of insts commited each cycle
system.switch_cpus.commit.fp_insts            9673634                       # Number of committed floating point instructions.
system.switch_cpus.commit.function_calls     11467274                       # Number of function calls committed.
system.switch_cpus.commit.int_insts         995994036                       # Number of committed integer instructions.
system.switch_cpus.commit.loads             163190013                       # Number of loads committed
system.switch_cpus.commit.membars                8800                       # Number of memory barriers committed
system.switch_cpus.commit.op_class_0::No_OpClass       936448      0.09%      0.09% # Class of committed instruction
system.switch_cpus.commit.op_class_0::IntAlu    742566471     74.16%     74.26% # Class of committed instruction
system.switch_cpus.commit.op_class_0::IntMult        19542      0.00%     74.26% # Class of committed instruction
system.switch_cpus.commit.op_class_0::IntDiv        25867      0.00%     74.26% # Class of committed instruction
system.switch_cpus.commit.op_class_0::FloatAdd       961262      0.10%     74.36% # Class of committed instruction
system.switch_cpus.commit.op_class_0::FloatCmp            0      0.00%     74.36% # Class of committed instruction
system.switch_cpus.commit.op_class_0::FloatCvt            0      0.00%     74.36% # Class of committed instruction
system.switch_cpus.commit.op_class_0::FloatMult            0      0.00%     74.36% # Class of committed instruction
system.switch_cpus.commit.op_class_0::FloatMultAcc            0      0.00%     74.36% # Class of committed instruction
system.switch_cpus.commit.op_class_0::FloatDiv            0      0.00%     74.36% # Class of committed instruction
system.switch_cpus.commit.op_class_0::FloatMisc            0      0.00%     74.36% # Class of committed instruction
system.switch_cpus.commit.op_class_0::FloatSqrt            0      0.00%     74.36% # Class of committed instruction
system.switch_cpus.commit.op_class_0::SimdAdd            0      0.00%     74.36% # Class of committed instruction
system.switch_cpus.commit.op_class_0::SimdAddAcc            0      0.00%     74.36% # Class of committed instruction
system.switch_cpus.commit.op_class_0::SimdAlu       264674      0.03%     74.39% # Class of committed instruction
system.switch_cpus.commit.op_class_0::SimdCmp            0      0.00%     74.39% # Class of committed instruction
system.switch_cpus.commit.op_class_0::SimdCvt            0      0.00%     74.39% # Class of committed instruction
system.switch_cpus.commit.op_class_0::SimdMisc      1248466      0.12%     74.51% # Class of committed instruction
system.switch_cpus.commit.op_class_0::SimdMult            0      0.00%     74.51% # Class of committed instruction
system.switch_cpus.commit.op_class_0::SimdMultAcc            0      0.00%     74.51% # Class of committed instruction
system.switch_cpus.commit.op_class_0::SimdShift            0      0.00%     74.51% # Class of committed instruction
system.switch_cpus.commit.op_class_0::SimdShiftAcc            0      0.00%     74.51% # Class of committed instruction
system.switch_cpus.commit.op_class_0::SimdDiv            0      0.00%     74.51% # Class of committed instruction
system.switch_cpus.commit.op_class_0::SimdSqrt            0      0.00%     74.51% # Class of committed instruction
system.switch_cpus.commit.op_class_0::SimdFloatAdd            0      0.00%     74.51% # Class of committed instruction
system.switch_cpus.commit.op_class_0::SimdFloatAlu            0      0.00%     74.51% # Class of committed instruction
system.switch_cpus.commit.op_class_0::SimdFloatCmp            0      0.00%     74.51% # Class of committed instruction
system.switch_cpus.commit.op_class_0::SimdFloatCvt      1096035      0.11%     74.62% # Class of committed instruction
system.switch_cpus.commit.op_class_0::SimdFloatDiv            0      0.00%     74.62% # Class of committed instruction
system.switch_cpus.commit.op_class_0::SimdFloatMisc            0      0.00%     74.62% # Class of committed instruction
system.switch_cpus.commit.op_class_0::SimdFloatMult       132370      0.01%     74.63% # Class of committed instruction
system.switch_cpus.commit.op_class_0::SimdFloatMultAcc            0      0.00%     74.63% # Class of committed instruction
system.switch_cpus.commit.op_class_0::SimdFloatSqrt            0      0.00%     74.63% # Class of committed instruction
system.switch_cpus.commit.op_class_0::SimdReduceAdd            0      0.00%     74.63% # Class of committed instruction
system.switch_cpus.commit.op_class_0::SimdReduceAlu            0      0.00%     74.63% # Class of committed instruction
system.switch_cpus.commit.op_class_0::SimdReduceCmp            0      0.00%     74.63% # Class of committed instruction
system.switch_cpus.commit.op_class_0::SimdFloatReduceAdd            0      0.00%     74.63% # Class of committed instruction
system.switch_cpus.commit.op_class_0::SimdFloatReduceCmp            0      0.00%     74.63% # Class of committed instruction
system.switch_cpus.commit.op_class_0::SimdAes            0      0.00%     74.63% # Class of committed instruction
system.switch_cpus.commit.op_class_0::SimdAesMix            0      0.00%     74.63% # Class of committed instruction
system.switch_cpus.commit.op_class_0::SimdSha1Hash            0      0.00%     74.63% # Class of committed instruction
system.switch_cpus.commit.op_class_0::SimdSha1Hash2            0      0.00%     74.63% # Class of committed instruction
system.switch_cpus.commit.op_class_0::SimdSha256Hash            0      0.00%     74.63% # Class of committed instruction
system.switch_cpus.commit.op_class_0::SimdSha256Hash2            0      0.00%     74.63% # Class of committed instruction
system.switch_cpus.commit.op_class_0::SimdShaSigma2            0      0.00%     74.63% # Class of committed instruction
system.switch_cpus.commit.op_class_0::SimdShaSigma3            0      0.00%     74.63% # Class of committed instruction
system.switch_cpus.commit.op_class_0::SimdPredAlu            0      0.00%     74.63% # Class of committed instruction
system.switch_cpus.commit.op_class_0::MemRead    160218681     16.00%     90.63% # Class of committed instruction
system.switch_cpus.commit.op_class_0::MemWrite     88221854      8.81%     99.45% # Class of committed instruction
system.switch_cpus.commit.op_class_0::FloatMemRead      2971332      0.30%     99.74% # Class of committed instruction
system.switch_cpus.commit.op_class_0::FloatMemWrite      2576994      0.26%    100.00% # Class of committed instruction
system.switch_cpus.commit.op_class_0::IprAccess            0      0.00%    100.00% # Class of committed instruction
system.switch_cpus.commit.op_class_0::InstPrefetch            0      0.00%    100.00% # Class of committed instruction
system.switch_cpus.commit.op_class_0::total   1001239996                       # Class of committed instruction
system.switch_cpus.commit.refs              253988861                       # Number of memory references committed
system.switch_cpus.commit.swp_count                 0                       # Number of s/w prefetches committed
system.switch_cpus.commit.vec_insts                 0                       # Number of committed Vector instructions.
system.switch_cpus.committedInsts           500000000                       # Number of Instructions Simulated
system.switch_cpus.committedOps            1001239996                       # Number of Ops (including micro ops) Simulated
system.switch_cpus.cpi                       5.208549                       # CPI: Cycles Per Instruction
system.switch_cpus.cpi_total                 5.208549                       # CPI: Total CPI of All Threads
system.switch_cpus.decode.BlockedCycles     498454156                       # Number of cycles decode is blocked
system.switch_cpus.decode.DecodedInsts     2405842730                       # Number of instructions handled by decode
system.switch_cpus.decode.IdleCycles        815129537                       # Number of cycles decode is idle
system.switch_cpus.decode.RunCycles         336781561                       # Number of cycles decode is running
system.switch_cpus.decode.SquashCycles       36401386                       # Number of cycles decode is squashing
system.switch_cpus.decode.UnblockCycles      22274487                       # Number of cycles decode is unblocking
system.switch_cpus.dtb.rdAccesses           272497747                       # TLB accesses on read requests
system.switch_cpus.dtb.rdMisses               4997332                       # TLB misses on read requests
system.switch_cpus.dtb.wrAccesses           174402991                       # TLB accesses on write requests
system.switch_cpus.dtb.wrMisses                320078                       # TLB misses on write requests
system.switch_cpus.fetch.Branches           304977302                       # Number of branches that fetch encountered
system.switch_cpus.fetch.CacheLines         172890531                       # Number of cache lines fetched
system.switch_cpus.fetch.Cycles             770296359                       # Number of cycles fetch has run and was not squashing or blocked
system.switch_cpus.fetch.IcacheSquashes      21196143                       # Number of outstanding Icache misses that were squashed
system.switch_cpus.fetch.IcacheWaitRetryStallCycles       579567                       # Number of stall cycles due to full MSHR
system.switch_cpus.fetch.Insts             1258741725                       # Number of instructions fetch has processed
system.switch_cpus.fetch.MiscStallCycles       168015                       # Number of cycles fetch has spent waiting on interrupts, or bad addresses, or out of MSHRs
system.switch_cpus.fetch.PendingTrapStallCycles       573779                       # Number of stall cycles due to pending traps
system.switch_cpus.fetch.SquashCycles        72802772                       # Number of cycles fetch has spent squashing
system.switch_cpus.fetch.branchRate          0.117106                       # Number of branch fetches per cycle
system.switch_cpus.fetch.icacheStallCycles    901022029                       # Number of cycles fetch is stalled on an Icache miss
system.switch_cpus.fetch.predictedBranches    105799352                       # Number of branches that fetch has predicted taken
system.switch_cpus.fetch.rate                0.483337                       # Number of inst fetches per cycle
system.switch_cpus.fetch.rateDist::samples   1709041135                       # Number of instructions fetched each cycle (Total)
system.switch_cpus.fetch.rateDist::mean      1.528540                       # Number of instructions fetched each cycle (Total)
system.switch_cpus.fetch.rateDist::stdev     2.943945                       # Number of instructions fetched each cycle (Total)
system.switch_cpus.fetch.rateDist::underflows            0      0.00%      0.00% # Number of instructions fetched each cycle (Total)
system.switch_cpus.fetch.rateDist::0       1296868814     75.88%     75.88% # Number of instructions fetched each cycle (Total)
system.switch_cpus.fetch.rateDist::1         22598179      1.32%     77.21% # Number of instructions fetched each cycle (Total)
system.switch_cpus.fetch.rateDist::2         16301154      0.95%     78.16% # Number of instructions fetched each cycle (Total)
system.switch_cpus.fetch.rateDist::3         42502798      2.49%     80.65% # Number of instructions fetched each cycle (Total)
system.switch_cpus.fetch.rateDist::4         17667473      1.03%     81.68% # Number of instructions fetched each cycle (Total)
system.switch_cpus.fetch.rateDist::5         23671960      1.39%     83.06% # Number of instructions fetched each cycle (Total)
system.switch_cpus.fetch.rateDist::6         29663632      1.74%     84.80% # Number of instructions fetched each cycle (Total)
system.switch_cpus.fetch.rateDist::7         15519761      0.91%     85.71% # Number of instructions fetched each cycle (Total)
system.switch_cpus.fetch.rateDist::8        244247364     14.29%    100.00% # Number of instructions fetched each cycle (Total)
system.switch_cpus.fetch.rateDist::overflows            0      0.00%    100.00% # Number of instructions fetched each cycle (Total)
system.switch_cpus.fetch.rateDist::min_value            0                       # Number of instructions fetched each cycle (Total)
system.switch_cpus.fetch.rateDist::max_value            8                       # Number of instructions fetched each cycle (Total)
system.switch_cpus.fetch.rateDist::total   1709041135                       # Number of instructions fetched each cycle (Total)
system.switch_cpus.fp_regfile_reads          13235711                       # number of floating regfile reads
system.switch_cpus.fp_regfile_writes          9669972                       # number of floating regfile writes
system.switch_cpus.idleCycles               895233320                       # Total number of cycles that the CPU has spent unscheduled due to idling
system.switch_cpus.iew.branchMispredicts     48375551                       # Number of branch mispredicts detected at execute
system.switch_cpus.iew.exec_branches        186491547                       # Number of branches executed
system.switch_cpus.iew.exec_nop                     0                       # number of nop insts executed
system.switch_cpus.iew.exec_rate             0.709526                       # Inst execution rate
system.switch_cpus.iew.exec_refs            447042528                       # number of memory reference insts executed
system.switch_cpus.iew.exec_stores          174331922                       # Number of stores executed
system.switch_cpus.iew.exec_swp                     0                       # number of swp insts executed
system.switch_cpus.iew.iewBlockCycles       183486882                       # Number of cycles IEW is blocking
system.switch_cpus.iew.iewDispLoadInsts     325941539                       # Number of dispatched load instructions
system.switch_cpus.iew.iewDispNonSpecInsts        23308                       # Number of dispatched non-speculative instructions
system.switch_cpus.iew.iewDispSquashedInsts      1030133                       # Number of squashed instructions skipped by dispatch
system.switch_cpus.iew.iewDispStoreInsts    210344831                       # Number of dispatched store instructions
system.switch_cpus.iew.iewDispatchedInsts   2147948664                       # Number of instructions dispatched to IQ
system.switch_cpus.iew.iewExecLoadInsts     272710606                       # Number of load instructions executed
system.switch_cpus.iew.iewExecSquashedInsts     59329573                       # Number of squashed instructions skipped in execute
system.switch_cpus.iew.iewExecutedInsts    1847800660                       # Number of executed instructions
system.switch_cpus.iew.iewIQFullEvents         720259                       # Number of times the IQ has become full, causing a stall
system.switch_cpus.iew.iewIdleCycles                0                       # Number of cycles IEW is idle
system.switch_cpus.iew.iewLSQFullEvents      22366432                       # Number of times the LSQ has become full, causing a stall
system.switch_cpus.iew.iewSquashCycles       36401386                       # Number of cycles IEW is squashing
system.switch_cpus.iew.iewUnblockCycles      23218470                       # Number of cycles IEW is unblocking
system.switch_cpus.iew.lsq.thread0.blockedLoads            0                       # Number of blocked loads due to partial load-store forwarding
system.switch_cpus.iew.lsq.thread0.cacheBlocked       122552                       # Number of times an access to memory failed due to the cache being blocked
system.switch_cpus.iew.lsq.thread0.forwLoads     23512811                       # Number of loads that had data forwarded from stores
system.switch_cpus.iew.lsq.thread0.ignoredResponses       252060                       # Number of memory responses ignored because the instruction is squashed
system.switch_cpus.iew.lsq.thread0.invAddrLoads            0                       # Number of loads ignored due to an invalid address
system.switch_cpus.iew.lsq.thread0.invAddrSwpfs            0                       # Number of software prefetches ignored due to an invalid address
system.switch_cpus.iew.lsq.thread0.memOrderViolation       358256                       # Number of memory ordering violations
system.switch_cpus.iew.lsq.thread0.rescheduledLoads        40760                       # Number of loads that were rescheduled
system.switch_cpus.iew.lsq.thread0.squashedLoads    162751519                       # Number of loads squashed
system.switch_cpus.iew.lsq.thread0.squashedStores    119545981                       # Number of stores squashed
system.switch_cpus.iew.memOrderViolationEvents       358256                       # Number of memory order violations
system.switch_cpus.iew.predictedNotTakenIncorrect     43831501                       # Number of branches that were predicted not taken incorrectly
system.switch_cpus.iew.predictedTakenIncorrect      4544050                       # Number of branches that were predicted taken incorrectly
system.switch_cpus.iew.wb_consumers        1839065854                       # num instructions consuming a value
system.switch_cpus.iew.wb_count            1812821495                       # cumulative count of insts written-back
system.switch_cpus.iew.wb_fanout             0.688833                       # average fanout of values written-back
system.switch_cpus.iew.wb_producers        1266810135                       # num instructions producing a value
system.switch_cpus.iew.wb_rate               0.696095                       # insts written-back per cycle
system.switch_cpus.iew.wb_sent             1827032063                       # cumulative count of insts sent to commit
system.switch_cpus.int_regfile_reads       2414003155                       # number of integer regfile reads
system.switch_cpus.int_regfile_writes      1437559385                       # number of integer regfile writes
system.switch_cpus.ipc                       0.191992                       # IPC: Instructions Per Cycle
system.switch_cpus.ipc_total                 0.191992                       # IPC: Total IPC of All Threads
system.switch_cpus.iq.FU_type_0::No_OpClass     12330287      0.65%      0.65% # Type of FU issued
system.switch_cpus.iq.FU_type_0::IntAlu    1423874809     74.66%     75.31% # Type of FU issued
system.switch_cpus.iq.FU_type_0::IntMult        21302      0.00%     75.31% # Type of FU issued
system.switch_cpus.iq.FU_type_0::IntDiv         30801      0.00%     75.31% # Type of FU issued
system.switch_cpus.iq.FU_type_0::FloatAdd      1602910      0.08%     75.39% # Type of FU issued
system.switch_cpus.iq.FU_type_0::FloatCmp            0      0.00%     75.39% # Type of FU issued
system.switch_cpus.iq.FU_type_0::FloatCvt            0      0.00%     75.39% # Type of FU issued
system.switch_cpus.iq.FU_type_0::FloatMult            0      0.00%     75.39% # Type of FU issued
system.switch_cpus.iq.FU_type_0::FloatMultAcc            0      0.00%     75.39% # Type of FU issued
system.switch_cpus.iq.FU_type_0::FloatDiv            0      0.00%     75.39% # Type of FU issued
system.switch_cpus.iq.FU_type_0::FloatMisc            0      0.00%     75.39% # Type of FU issued
system.switch_cpus.iq.FU_type_0::FloatSqrt            0      0.00%     75.39% # Type of FU issued
system.switch_cpus.iq.FU_type_0::SimdAdd            0      0.00%     75.39% # Type of FU issued
system.switch_cpus.iq.FU_type_0::SimdAddAcc            0      0.00%     75.39% # Type of FU issued
system.switch_cpus.iq.FU_type_0::SimdAlu       511994      0.03%     75.42% # Type of FU issued
system.switch_cpus.iq.FU_type_0::SimdCmp            0      0.00%     75.42% # Type of FU issued
system.switch_cpus.iq.FU_type_0::SimdCvt        15610      0.00%     75.42% # Type of FU issued
system.switch_cpus.iq.FU_type_0::SimdMisc      1349019      0.07%     75.49% # Type of FU issued
system.switch_cpus.iq.FU_type_0::SimdMult            0      0.00%     75.49% # Type of FU issued
system.switch_cpus.iq.FU_type_0::SimdMultAcc            0      0.00%     75.49% # Type of FU issued
system.switch_cpus.iq.FU_type_0::SimdShift            0      0.00%     75.49% # Type of FU issued
system.switch_cpus.iq.FU_type_0::SimdShiftAcc            0      0.00%     75.49% # Type of FU issued
system.switch_cpus.iq.FU_type_0::SimdDiv            0      0.00%     75.49% # Type of FU issued
system.switch_cpus.iq.FU_type_0::SimdSqrt            0      0.00%     75.49% # Type of FU issued
system.switch_cpus.iq.FU_type_0::SimdFloatAdd        20353      0.00%     75.49% # Type of FU issued
system.switch_cpus.iq.FU_type_0::SimdFloatAlu            0      0.00%     75.49% # Type of FU issued
system.switch_cpus.iq.FU_type_0::SimdFloatCmp            0      0.00%     75.49% # Type of FU issued
system.switch_cpus.iq.FU_type_0::SimdFloatCvt      1477133      0.08%     75.57% # Type of FU issued
system.switch_cpus.iq.FU_type_0::SimdFloatDiv            0      0.00%     75.57% # Type of FU issued
system.switch_cpus.iq.FU_type_0::SimdFloatMisc            0      0.00%     75.57% # Type of FU issued
system.switch_cpus.iq.FU_type_0::SimdFloatMult       136849      0.01%     75.58% # Type of FU issued
system.switch_cpus.iq.FU_type_0::SimdFloatMultAcc            0      0.00%     75.58% # Type of FU issued
system.switch_cpus.iq.FU_type_0::SimdFloatSqrt            0      0.00%     75.58% # Type of FU issued
system.switch_cpus.iq.FU_type_0::SimdReduceAdd            0      0.00%     75.58% # Type of FU issued
system.switch_cpus.iq.FU_type_0::SimdReduceAlu            0      0.00%     75.58% # Type of FU issued
system.switch_cpus.iq.FU_type_0::SimdReduceCmp            0      0.00%     75.58% # Type of FU issued
system.switch_cpus.iq.FU_type_0::SimdFloatReduceAdd            0      0.00%     75.58% # Type of FU issued
system.switch_cpus.iq.FU_type_0::SimdFloatReduceCmp            0      0.00%     75.58% # Type of FU issued
system.switch_cpus.iq.FU_type_0::SimdAes            0      0.00%     75.58% # Type of FU issued
system.switch_cpus.iq.FU_type_0::SimdAesMix            0      0.00%     75.58% # Type of FU issued
system.switch_cpus.iq.FU_type_0::SimdSha1Hash            0      0.00%     75.58% # Type of FU issued
system.switch_cpus.iq.FU_type_0::SimdSha1Hash2            0      0.00%     75.58% # Type of FU issued
system.switch_cpus.iq.FU_type_0::SimdSha256Hash            0      0.00%     75.58% # Type of FU issued
system.switch_cpus.iq.FU_type_0::SimdSha256Hash2            0      0.00%     75.58% # Type of FU issued
system.switch_cpus.iq.FU_type_0::SimdShaSigma2            0      0.00%     75.58% # Type of FU issued
system.switch_cpus.iq.FU_type_0::SimdShaSigma3            0      0.00%     75.58% # Type of FU issued
system.switch_cpus.iq.FU_type_0::SimdPredAlu            0      0.00%     75.58% # Type of FU issued
system.switch_cpus.iq.FU_type_0::MemRead    277316861     14.54%     90.12% # Type of FU issued
system.switch_cpus.iq.FU_type_0::MemWrite    176277497      9.24%     99.36% # Type of FU issued
system.switch_cpus.iq.FU_type_0::FloatMemRead      6420542      0.34%     99.70% # Type of FU issued
system.switch_cpus.iq.FU_type_0::FloatMemWrite      5744269      0.30%    100.00% # Type of FU issued
system.switch_cpus.iq.FU_type_0::IprAccess            0      0.00%    100.00% # Type of FU issued
system.switch_cpus.iq.FU_type_0::InstPrefetch            0      0.00%    100.00% # Type of FU issued
system.switch_cpus.iq.FU_type_0::total     1907130236                       # Type of FU issued
system.switch_cpus.iq.fp_alu_accesses        19313240                       # Number of floating point alu accesses
system.switch_cpus.iq.fp_inst_queue_reads     37292938                       # Number of floating instruction queue reads
system.switch_cpus.iq.fp_inst_queue_wakeup_accesses     16210895                       # Number of floating instruction queue wakeup accesses
system.switch_cpus.iq.fp_inst_queue_writes     31574144                       # Number of floating instruction queue writes
system.switch_cpus.iq.fu_busy_cnt            22796924                       # FU busy when requested
system.switch_cpus.iq.fu_busy_rate           0.011954                       # FU busy rate (busy events/executed inst)
system.switch_cpus.iq.fu_full::No_OpClass            0      0.00%      0.00% # attempts to use FU when none available
system.switch_cpus.iq.fu_full::IntAlu        18318561     80.36%     80.36% # attempts to use FU when none available
system.switch_cpus.iq.fu_full::IntMult              0      0.00%     80.36% # attempts to use FU when none available
system.switch_cpus.iq.fu_full::IntDiv               0      0.00%     80.36% # attempts to use FU when none available
system.switch_cpus.iq.fu_full::FloatAdd             0      0.00%     80.36% # attempts to use FU when none available
system.switch_cpus.iq.fu_full::FloatCmp             0      0.00%     80.36% # attempts to use FU when none available
system.switch_cpus.iq.fu_full::FloatCvt             0      0.00%     80.36% # attempts to use FU when none available
system.switch_cpus.iq.fu_full::FloatMult            0      0.00%     80.36% # attempts to use FU when none available
system.switch_cpus.iq.fu_full::FloatMultAcc            0      0.00%     80.36% # attempts to use FU when none available
system.switch_cpus.iq.fu_full::FloatDiv             0      0.00%     80.36% # attempts to use FU when none available
system.switch_cpus.iq.fu_full::FloatMisc            0      0.00%     80.36% # attempts to use FU when none available
system.switch_cpus.iq.fu_full::FloatSqrt            0      0.00%     80.36% # attempts to use FU when none available
system.switch_cpus.iq.fu_full::SimdAdd              0      0.00%     80.36% # attempts to use FU when none available
system.switch_cpus.iq.fu_full::SimdAddAcc            0      0.00%     80.36% # attempts to use FU when none available
system.switch_cpus.iq.fu_full::SimdAlu              1      0.00%     80.36% # attempts to use FU when none available
system.switch_cpus.iq.fu_full::SimdCmp              0      0.00%     80.36% # attempts to use FU when none available
system.switch_cpus.iq.fu_full::SimdCvt            111      0.00%     80.36% # attempts to use FU when none available
system.switch_cpus.iq.fu_full::SimdMisc             0      0.00%     80.36% # attempts to use FU when none available
system.switch_cpus.iq.fu_full::SimdMult             0      0.00%     80.36% # attempts to use FU when none available
system.switch_cpus.iq.fu_full::SimdMultAcc            0      0.00%     80.36% # attempts to use FU when none available
system.switch_cpus.iq.fu_full::SimdShift            0      0.00%     80.36% # attempts to use FU when none available
system.switch_cpus.iq.fu_full::SimdShiftAcc            0      0.00%     80.36% # attempts to use FU when none available
system.switch_cpus.iq.fu_full::SimdDiv              0      0.00%     80.36% # attempts to use FU when none available
system.switch_cpus.iq.fu_full::SimdSqrt             0      0.00%     80.36% # attempts to use FU when none available
system.switch_cpus.iq.fu_full::SimdFloatAdd            0      0.00%     80.36% # attempts to use FU when none available
system.switch_cpus.iq.fu_full::SimdFloatAlu            0      0.00%     80.36% # attempts to use FU when none available
system.switch_cpus.iq.fu_full::SimdFloatCmp            0      0.00%     80.36% # attempts to use FU when none available
system.switch_cpus.iq.fu_full::SimdFloatCvt            0      0.00%     80.36% # attempts to use FU when none available
system.switch_cpus.iq.fu_full::SimdFloatDiv            0      0.00%     80.36% # attempts to use FU when none available
system.switch_cpus.iq.fu_full::SimdFloatMisc            0      0.00%     80.36% # attempts to use FU when none available
system.switch_cpus.iq.fu_full::SimdFloatMult            0      0.00%     80.36% # attempts to use FU when none available
system.switch_cpus.iq.fu_full::SimdFloatMultAcc            0      0.00%     80.36% # attempts to use FU when none available
system.switch_cpus.iq.fu_full::SimdFloatSqrt            0      0.00%     80.36% # attempts to use FU when none available
system.switch_cpus.iq.fu_full::SimdReduceAdd            0      0.00%     80.36% # attempts to use FU when none available
system.switch_cpus.iq.fu_full::SimdReduceAlu            0      0.00%     80.36% # attempts to use FU when none available
system.switch_cpus.iq.fu_full::SimdReduceCmp            0      0.00%     80.36% # attempts to use FU when none available
system.switch_cpus.iq.fu_full::SimdFloatReduceAdd            0      0.00%     80.36% # attempts to use FU when none available
system.switch_cpus.iq.fu_full::SimdFloatReduceCmp            0      0.00%     80.36% # attempts to use FU when none available
system.switch_cpus.iq.fu_full::SimdAes              0      0.00%     80.36% # attempts to use FU when none available
system.switch_cpus.iq.fu_full::SimdAesMix            0      0.00%     80.36% # attempts to use FU when none available
system.switch_cpus.iq.fu_full::SimdSha1Hash            0      0.00%     80.36% # attempts to use FU when none available
system.switch_cpus.iq.fu_full::SimdSha1Hash2            0      0.00%     80.36% # attempts to use FU when none available
system.switch_cpus.iq.fu_full::SimdSha256Hash            0      0.00%     80.36% # attempts to use FU when none available
system.switch_cpus.iq.fu_full::SimdSha256Hash2            0      0.00%     80.36% # attempts to use FU when none available
system.switch_cpus.iq.fu_full::SimdShaSigma2            0      0.00%     80.36% # attempts to use FU when none available
system.switch_cpus.iq.fu_full::SimdShaSigma3            0      0.00%     80.36% # attempts to use FU when none available
system.switch_cpus.iq.fu_full::SimdPredAlu            0      0.00%     80.36% # attempts to use FU when none available
system.switch_cpus.iq.fu_full::MemRead        1795652      7.88%     88.23% # attempts to use FU when none available
system.switch_cpus.iq.fu_full::MemWrite       1157862      5.08%     93.31% # attempts to use FU when none available
system.switch_cpus.iq.fu_full::FloatMemRead       889471      3.90%     97.21% # attempts to use FU when none available
system.switch_cpus.iq.fu_full::FloatMemWrite       635266      2.79%    100.00% # attempts to use FU when none available
system.switch_cpus.iq.fu_full::IprAccess            0      0.00%    100.00% # attempts to use FU when none available
system.switch_cpus.iq.fu_full::InstPrefetch            0      0.00%    100.00% # attempts to use FU when none available
system.switch_cpus.iq.int_alu_accesses     1898283633                       # Number of integer alu accesses
system.switch_cpus.iq.int_inst_queue_reads   5516945381                       # Number of integer instruction queue reads
system.switch_cpus.iq.int_inst_queue_wakeup_accesses   1796610600                       # Number of integer instruction queue wakeup accesses
system.switch_cpus.iq.int_inst_queue_writes   3263430518                       # Number of integer instruction queue writes
system.switch_cpus.iq.iqInstsAdded         2147794397                       # Number of instructions added to the IQ (excludes non-spec)
system.switch_cpus.iq.iqInstsIssued        1907130236                       # Number of instructions issued
system.switch_cpus.iq.iqNonSpecInstsAdded       154267                       # Number of non-speculative instructions added to the IQ
system.switch_cpus.iq.iqSquashedInstsExamined   1146708614                       # Number of squashed instructions iterated over during squash; mainly for profiling
system.switch_cpus.iq.iqSquashedInstsIssued      8139791                       # Number of squashed instructions issued
system.switch_cpus.iq.iqSquashedNonSpecRemoved       131744                       # Number of squashed non-spec instructions that were removed
system.switch_cpus.iq.iqSquashedOperandsExamined   1046874624                       # Number of squashed operands that are examined and possibly removed from graph
system.switch_cpus.iq.issued_per_cycle::samples   1709041135                       # Number of insts issued each cycle
system.switch_cpus.iq.issued_per_cycle::mean     1.115907                       # Number of insts issued each cycle
system.switch_cpus.iq.issued_per_cycle::stdev     2.027310                       # Number of insts issued each cycle
system.switch_cpus.iq.issued_per_cycle::underflows            0      0.00%      0.00% # Number of insts issued each cycle
system.switch_cpus.iq.issued_per_cycle::0   1184318773     69.30%     69.30% # Number of insts issued each cycle
system.switch_cpus.iq.issued_per_cycle::1    103414488      6.05%     75.35% # Number of insts issued each cycle
system.switch_cpus.iq.issued_per_cycle::2     89413170      5.23%     80.58% # Number of insts issued each cycle
system.switch_cpus.iq.issued_per_cycle::3     72549183      4.25%     84.83% # Number of insts issued each cycle
system.switch_cpus.iq.issued_per_cycle::4     77675213      4.54%     89.37% # Number of insts issued each cycle
system.switch_cpus.iq.issued_per_cycle::5     65934259      3.86%     93.23% # Number of insts issued each cycle
system.switch_cpus.iq.issued_per_cycle::6     62658141      3.67%     96.89% # Number of insts issued each cycle
system.switch_cpus.iq.issued_per_cycle::7     33702398      1.97%     98.87% # Number of insts issued each cycle
system.switch_cpus.iq.issued_per_cycle::8     19375510      1.13%    100.00% # Number of insts issued each cycle
system.switch_cpus.iq.issued_per_cycle::overflows            0      0.00%    100.00% # Number of insts issued each cycle
system.switch_cpus.iq.issued_per_cycle::min_value            0                       # Number of insts issued each cycle
system.switch_cpus.iq.issued_per_cycle::max_value            8                       # Number of insts issued each cycle
system.switch_cpus.iq.issued_per_cycle::total   1709041135                       # Number of insts issued each cycle
system.switch_cpus.iq.rate                   0.732308                       # Inst issue rate
system.switch_cpus.iq.vec_alu_accesses              0                       # Number of vector alu accesses
system.switch_cpus.iq.vec_inst_queue_reads            0                       # Number of vector instruction queue reads
system.switch_cpus.iq.vec_inst_queue_wakeup_accesses            0                       # Number of vector instruction queue wakeup accesses
system.switch_cpus.iq.vec_inst_queue_writes            0                       # Number of vector instruction queue writes
system.switch_cpus.itb.rdAccesses                   0                       # TLB accesses on read requests
system.switch_cpus.itb.rdMisses                     0                       # TLB misses on read requests
system.switch_cpus.itb.wrAccesses           172982222                       # TLB accesses on write requests
system.switch_cpus.itb.wrMisses                547392                       # TLB misses on write requests
system.switch_cpus.memDep0.conflictingLoads     18990159                       # Number of conflicting loads.
system.switch_cpus.memDep0.conflictingStores     22362597                       # Number of conflicting stores.
system.switch_cpus.memDep0.insertedLoads    325941539                       # Number of loads inserted to the mem dependence unit.
system.switch_cpus.memDep0.insertedStores    210344831                       # Number of stores inserted to the mem dependence unit.
system.switch_cpus.misc_regfile_reads       974747505                       # number of misc regfile reads
system.switch_cpus.numCycles               2604274455                       # number of cpu cycles simulated
system.switch_cpus.numWorkItemsCompleted            0                       # number of work items this cpu completed
system.switch_cpus.numWorkItemsStarted              0                       # number of work items this cpu started
system.switch_cpus.rename.BlockCycles       383707903                       # Number of cycles rename is blocking
system.switch_cpus.rename.CommittedMaps    1062350926                       # Number of HB maps that are committed
system.switch_cpus.rename.FullRegisterEvents           56                       # Number of times there has been no free registers
system.switch_cpus.rename.IQFullEvents       15032356                       # Number of times rename has blocked due to IQ full
system.switch_cpus.rename.IdleCycles        831250275                       # Number of cycles rename is idle
system.switch_cpus.rename.LQFullEvents       67661178                       # Number of times rename has blocked due to LQ full
system.switch_cpus.rename.ROBFullEvents      10590891                       # Number of times rename has blocked due to ROB full
system.switch_cpus.rename.RenameLookups    5505508214                       # Number of register rename lookups that rename has made
system.switch_cpus.rename.RenamedInsts     2313448559                       # Number of instructions processed by rename
system.switch_cpus.rename.RenamedOperands   2402021061                       # Number of destination operands rename has renamed
system.switch_cpus.rename.RunCycles         339756044                       # Number of cycles rename is running
system.switch_cpus.rename.SQFullEvents       35250301                       # Number of times rename has blocked due to SQ full
system.switch_cpus.rename.SquashCycles       36401386                       # Number of cycles rename is squashing
system.switch_cpus.rename.UnblockCycles     117858946                       # Number of cycles rename is unblocking
system.switch_cpus.rename.UndoneMaps       1339670060                       # Number of HB maps that are undone due to squashing
system.switch_cpus.rename.fp_rename_lookups     18186139                       # Number of floating rename lookups
system.switch_cpus.rename.int_rename_lookups   3209749777                       # Number of integer rename lookups
system.switch_cpus.rename.serializeStallCycles        66574                       # count of cycles rename stalled for serializing inst
system.switch_cpus.rename.serializingInsts          775                       # count of serializing insts renamed
system.switch_cpus.rename.skidInsts          70665841                       # count of insts added to the skid buffer
system.switch_cpus.rename.tempSerializingInsts          775                       # count of temporary serializing insts renamed
system.switch_cpus.rob.rob_reads           3624955450                       # The number of ROB reads
system.switch_cpus.rob.rob_writes          4472819952                       # The number of ROB writes
system.switch_cpus.timesIdled                22559836                       # Number of times that the entire CPU went into an idle state and unscheduled itself
system.tol2bus.snoop_filter.hit_multi_requests        92131                       # Number of requests hitting in the snoop filter with multiple (>1) holders of the requested data.
system.tol2bus.snoop_filter.hit_multi_snoops        22504                       # Number of snoops hitting in the snoop filter with multiple (>1) holders of the requested data.
system.tol2bus.snoop_filter.hit_single_requests     58565444                       # Number of requests hitting in the snoop filter with a single holder of the requested data.
system.tol2bus.snoop_filter.hit_single_snoops      5044017                       # Number of snoops hitting in the snoop filter with a single holder of the requested data.
system.tol2bus.snoop_filter.tot_requests    117130974                       # Total number of requests made to the snoop filter.
system.tol2bus.snoop_filter.tot_snoops        5066521                       # Total number of snoops made to the snoop filter.
system.membus.pwrStateResidencyTicks::UNDEFINED 2466440236000                       # Cumulative time (in ticks) in various power states
system.membus.trans_dist::ReadResp           15074525                       # Transaction distribution
system.membus.trans_dist::WritebackDirty       977574                       # Transaction distribution
system.membus.trans_dist::CleanEvict         14538749                       # Transaction distribution
system.membus.trans_dist::UpgradeReq               48                       # Transaction distribution
system.membus.trans_dist::ReadExReq            448976                       # Transaction distribution
system.membus.trans_dist::ReadExResp           448976                       # Transaction distribution
system.membus.trans_dist::ReadSharedReq      15074525                       # Transaction distribution
system.membus.pkt_count_system.l2.mem_side::system.mem_ctrls.port     46563373                       # Packet count per connected master and slave (bytes)
system.membus.pkt_count_system.l2.mem_side::total     46563373                       # Packet count per connected master and slave (bytes)
system.membus.pkt_count::total               46563373                       # Packet count per connected master and slave (bytes)
system.membus.pkt_size_system.l2.mem_side::system.mem_ctrls.port   1056068800                       # Cumulative packet size per connected master and slave (bytes)
system.membus.pkt_size_system.l2.mem_side::total   1056068800                       # Cumulative packet size per connected master and slave (bytes)
system.membus.pkt_size::total              1056068800                       # Cumulative packet size per connected master and slave (bytes)
system.membus.snoops                                0                       # Total snoops (count)
system.membus.snoopTraffic                          0                       # Total snoop traffic (bytes)
system.membus.snoop_fanout::samples          15523549                       # Request fanout histogram
system.membus.snoop_fanout::mean                    0                       # Request fanout histogram
system.membus.snoop_fanout::stdev                   0                       # Request fanout histogram
system.membus.snoop_fanout::underflows              0      0.00%      0.00% # Request fanout histogram
system.membus.snoop_fanout::0                15523549    100.00%    100.00% # Request fanout histogram
system.membus.snoop_fanout::1                       0      0.00%    100.00% # Request fanout histogram
system.membus.snoop_fanout::overflows               0      0.00%    100.00% # Request fanout histogram
system.membus.snoop_fanout::min_value               0                       # Request fanout histogram
system.membus.snoop_fanout::max_value               0                       # Request fanout histogram
system.membus.snoop_fanout::total            15523549                       # Request fanout histogram
system.membus.reqLayer2.occupancy         39278982000                       # Layer occupancy (ticks)
system.membus.reqLayer2.utilization               3.0                       # Layer utilization (%)
system.membus.respLayer1.occupancy        83701827750                       # Layer occupancy (ticks)
system.membus.respLayer1.utilization              6.4                       # Layer utilization (%)
system.switch_cpus.pwrStateResidencyTicks::OFF 2466440236000                       # Cumulative time (in ticks) in various power states
system.switch_cpus.dtb.walker.pwrStateResidencyTicks::UNDEFINED 2466440236000                       # Cumulative time (in ticks) in various power states
system.switch_cpus.itb.walker.pwrStateResidencyTicks::UNDEFINED 2466440236000                       # Cumulative time (in ticks) in various power states
system.tol2bus.pwrStateResidencyTicks::UNDEFINED 2466440236000                       # Cumulative time (in ticks) in various power states
system.tol2bus.trans_dist::ReadResp          56647965                       # Transaction distribution
system.tol2bus.trans_dist::WritebackDirty      5853035                       # Transaction distribution
system.tol2bus.trans_dist::WritebackClean     41763432                       # Transaction distribution
system.tol2bus.trans_dist::CleanEvict        29170093                       # Transaction distribution
system.tol2bus.trans_dist::UpgradeReq              62                       # Transaction distribution
system.tol2bus.trans_dist::UpgradeResp             62                       # Transaction distribution
system.tol2bus.trans_dist::ReadExReq          1917517                       # Transaction distribution
system.tol2bus.trans_dist::ReadExResp         1917517                       # Transaction distribution
system.tol2bus.trans_dist::ReadCleanReq      41763484                       # Transaction distribution
system.tol2bus.trans_dist::ReadSharedReq     14884481                       # Transaction distribution
system.tol2bus.pkt_count_system.cpu.icache.mem_side::system.l2.cpu_side    125290330                       # Packet count per connected master and slave (bytes)
system.tol2bus.pkt_count_system.cpu.dcache.mem_side::system.l2.cpu_side     50406118                       # Packet count per connected master and slave (bytes)
system.tol2bus.pkt_count::total             175696448                       # Packet count per connected master and slave (bytes)
system.tol2bus.pkt_size_system.cpu.icache.mem_side::system.l2.cpu_side   5345718144                       # Cumulative packet size per connected master and slave (bytes)
system.tol2bus.pkt_size_system.cpu.dcache.mem_side::system.l2.cpu_side   1387357376                       # Cumulative packet size per connected master and slave (bytes)
system.tol2bus.pkt_size::total             6733075520                       # Cumulative packet size per connected master and slave (bytes)
system.tol2bus.snoops                        18221200                       # Total snoops (count)
system.tol2bus.snoopTraffic                  62569216                       # Total snoop traffic (bytes)
system.tol2bus.snoop_fanout::samples         76786674                       # Request fanout histogram
system.tol2bus.snoop_fanout::mean            0.067475                       # Request fanout histogram
system.tol2bus.snoop_fanout::stdev           0.252008                       # Request fanout histogram
system.tol2bus.snoop_fanout::underflows             0      0.00%      0.00% # Request fanout histogram
system.tol2bus.snoop_fanout::0               71628018     93.28%     93.28% # Request fanout histogram
system.tol2bus.snoop_fanout::1                5136152      6.69%     99.97% # Request fanout histogram
system.tol2bus.snoop_fanout::2                  22504      0.03%    100.00% # Request fanout histogram
system.tol2bus.snoop_fanout::3                      0      0.00%    100.00% # Request fanout histogram
system.tol2bus.snoop_fanout::4                      0      0.00%    100.00% # Request fanout histogram
system.tol2bus.snoop_fanout::overflows              0      0.00%    100.00% # Request fanout histogram
system.tol2bus.snoop_fanout::min_value              0                       # Request fanout histogram
system.tol2bus.snoop_fanout::max_value              2                       # Request fanout histogram
system.tol2bus.snoop_fanout::total           76786674                       # Request fanout histogram
system.tol2bus.reqLayer0.occupancy       105204380000                       # Layer occupancy (ticks)
system.tol2bus.reqLayer0.utilization              8.1                       # Layer utilization (%)
system.tol2bus.respLayer1.occupancy       25224991984                       # Layer occupancy (ticks)
system.tol2bus.respLayer1.utilization             1.9                       # Layer utilization (%)
system.tol2bus.respLayer0.occupancy       62668662533                       # Layer occupancy (ticks)
system.tol2bus.respLayer0.utilization             4.8                       # Layer utilization (%)
system.voltage_domain.voltage                       1                       # Voltage in Volts
system.clk_domain.clock                          1000                       # Clock period in ticks
system.l2.pwrStateResidencyTicks::UNDEFINED 2466440236000                       # Cumulative time (in ticks) in various power states
system.l2.demand_hits::.switch_cpus.inst     32539256                       # number of demand (read+write) hits
system.l2.demand_hits::.switch_cpus.data     10502277                       # number of demand (read+write) hits
system.l2.demand_hits::total                 43041533                       # number of demand (read+write) hits
system.l2.overall_hits::.switch_cpus.inst     32539256                       # number of overall hits
system.l2.overall_hits::.switch_cpus.data     10502277                       # number of overall hits
system.l2.overall_hits::total                43041533                       # number of overall hits
system.l2.demand_misses::.switch_cpus.inst      9224158                       # number of demand (read+write) misses
system.l2.demand_misses::.switch_cpus.data      6299721                       # number of demand (read+write) misses
system.l2.demand_misses::total               15523879                       # number of demand (read+write) misses
system.l2.overall_misses::.switch_cpus.inst      9224158                       # number of overall misses
system.l2.overall_misses::.switch_cpus.data      6299721                       # number of overall misses
system.l2.overall_misses::total              15523879                       # number of overall misses
system.l2.demand_miss_latency::.switch_cpus.inst 766403220500                       # number of demand (read+write) miss cycles
system.l2.demand_miss_latency::.switch_cpus.data 534878046000                       # number of demand (read+write) miss cycles
system.l2.demand_miss_latency::total     1301281266500                       # number of demand (read+write) miss cycles
system.l2.overall_miss_latency::.switch_cpus.inst 766403220500                       # number of overall miss cycles
system.l2.overall_miss_latency::.switch_cpus.data 534878046000                       # number of overall miss cycles
system.l2.overall_miss_latency::total    1301281266500                       # number of overall miss cycles
system.l2.demand_accesses::.switch_cpus.inst     41763414                       # number of demand (read+write) accesses
system.l2.demand_accesses::.switch_cpus.data     16801998                       # number of demand (read+write) accesses
system.l2.demand_accesses::total             58565412                       # number of demand (read+write) accesses
system.l2.overall_accesses::.switch_cpus.inst     41763414                       # number of overall (read+write) accesses
system.l2.overall_accesses::.switch_cpus.data     16801998                       # number of overall (read+write) accesses
system.l2.overall_accesses::total            58565412                       # number of overall (read+write) accesses
system.l2.demand_miss_rate::.switch_cpus.inst     0.220867                       # miss rate for demand accesses
system.l2.demand_miss_rate::.switch_cpus.data     0.374939                       # miss rate for demand accesses
system.l2.demand_miss_rate::total            0.265069                       # miss rate for demand accesses
system.l2.overall_miss_rate::.switch_cpus.inst     0.220867                       # miss rate for overall accesses
system.l2.overall_miss_rate::.switch_cpus.data     0.374939                       # miss rate for overall accesses
system.l2.overall_miss_rate::total           0.265069                       # miss rate for overall accesses
system.l2.demand_avg_miss_latency::.switch_cpus.inst 83086.523507                       # average overall miss latency
system.l2.demand_avg_miss_latency::.switch_cpus.data 84905.037223                       # average overall miss latency
system.l2.demand_avg_miss_latency::total 83824.491707                       # average overall miss latency
system.l2.overall_avg_miss_latency::.switch_cpus.inst 83086.523507                       # average overall miss latency
system.l2.overall_avg_miss_latency::.switch_cpus.data 84905.037223                       # average overall miss latency
system.l2.overall_avg_miss_latency::total 83824.491707                       # average overall miss latency
system.l2.blocked_cycles::no_mshrs                  0                       # number of cycles access was blocked
system.l2.blocked_cycles::no_targets                0                       # number of cycles access was blocked
system.l2.blocked::no_mshrs                         0                       # number of cycles access was blocked
system.l2.blocked::no_targets                       0                       # number of cycles access was blocked
system.l2.avg_blocked_cycles::no_mshrs            nan                       # average number of cycles each access was blocked
system.l2.avg_blocked_cycles::no_targets          nan                       # average number of cycles each access was blocked
system.l2.writebacks::.writebacks              977574                       # number of writebacks
system.l2.writebacks::total                    977574                       # number of writebacks
system.l2.demand_mshr_hits::.switch_cpus.inst          377                       # number of demand (read+write) MSHR hits
system.l2.demand_mshr_hits::.switch_cpus.data            1                       # number of demand (read+write) MSHR hits
system.l2.demand_mshr_hits::total                 378                       # number of demand (read+write) MSHR hits
system.l2.overall_mshr_hits::.switch_cpus.inst          377                       # number of overall MSHR hits
system.l2.overall_mshr_hits::.switch_cpus.data            1                       # number of overall MSHR hits
system.l2.overall_mshr_hits::total                378                       # number of overall MSHR hits
system.l2.demand_mshr_misses::.switch_cpus.inst      9223781                       # number of demand (read+write) MSHR misses
system.l2.demand_mshr_misses::.switch_cpus.data      6299720                       # number of demand (read+write) MSHR misses
system.l2.demand_mshr_misses::total          15523501                       # number of demand (read+write) MSHR misses
system.l2.overall_mshr_misses::.switch_cpus.inst      9223781                       # number of overall MSHR misses
system.l2.overall_mshr_misses::.switch_cpus.data      6299720                       # number of overall MSHR misses
system.l2.overall_mshr_misses::total         15523501                       # number of overall MSHR misses
system.l2.demand_mshr_miss_latency::.switch_cpus.inst 674137216000                       # number of demand (read+write) MSHR miss cycles
system.l2.demand_mshr_miss_latency::.switch_cpus.data 471880609500                       # number of demand (read+write) MSHR miss cycles
system.l2.demand_mshr_miss_latency::total 1146017825500                       # number of demand (read+write) MSHR miss cycles
system.l2.overall_mshr_miss_latency::.switch_cpus.inst 674137216000                       # number of overall MSHR miss cycles
system.l2.overall_mshr_miss_latency::.switch_cpus.data 471880609500                       # number of overall MSHR miss cycles
system.l2.overall_mshr_miss_latency::total 1146017825500                       # number of overall MSHR miss cycles
system.l2.demand_mshr_miss_rate::.switch_cpus.inst     0.220858                       # mshr miss rate for demand accesses
system.l2.demand_mshr_miss_rate::.switch_cpus.data     0.374939                       # mshr miss rate for demand accesses
system.l2.demand_mshr_miss_rate::total       0.265063                       # mshr miss rate for demand accesses
system.l2.overall_mshr_miss_rate::.switch_cpus.inst     0.220858                       # mshr miss rate for overall accesses
system.l2.overall_mshr_miss_rate::.switch_cpus.data     0.374939                       # mshr miss rate for overall accesses
system.l2.overall_mshr_miss_rate::total      0.265063                       # mshr miss rate for overall accesses
system.l2.demand_avg_mshr_miss_latency::.switch_cpus.inst 73086.862752                       # average overall mshr miss latency
system.l2.demand_avg_mshr_miss_latency::.switch_cpus.data 74905.013159                       # average overall mshr miss latency
system.l2.demand_avg_mshr_miss_latency::total 73824.701367                       # average overall mshr miss latency
system.l2.overall_avg_mshr_miss_latency::.switch_cpus.inst 73086.862752                       # average overall mshr miss latency
system.l2.overall_avg_mshr_miss_latency::.switch_cpus.data 74905.013159                       # average overall mshr miss latency
system.l2.overall_avg_mshr_miss_latency::total 73824.701367                       # average overall mshr miss latency
system.l2.replacements                       18221130                       # number of replacements
system.l2.WritebackDirty_hits::.writebacks      4875461                       # number of WritebackDirty hits
system.l2.WritebackDirty_hits::total          4875461                       # number of WritebackDirty hits
system.l2.WritebackDirty_accesses::.writebacks      4875461                       # number of WritebackDirty accesses(hits+misses)
system.l2.WritebackDirty_accesses::total      4875461                       # number of WritebackDirty accesses(hits+misses)
system.l2.WritebackClean_hits::.writebacks     41707042                       # number of WritebackClean hits
system.l2.WritebackClean_hits::total         41707042                       # number of WritebackClean hits
system.l2.WritebackClean_accesses::.writebacks     41707042                       # number of WritebackClean accesses(hits+misses)
system.l2.WritebackClean_accesses::total     41707042                       # number of WritebackClean accesses(hits+misses)
system.l2.CleanEvict_mshr_misses::.writebacks      2360854                       # number of CleanEvict MSHR misses
system.l2.CleanEvict_mshr_misses::total       2360854                       # number of CleanEvict MSHR misses
system.l2.CleanEvict_mshr_miss_rate::.writebacks          inf                       # mshr miss rate for CleanEvict accesses
system.l2.CleanEvict_mshr_miss_rate::total          inf                       # mshr miss rate for CleanEvict accesses
system.l2.UpgradeReq_hits::.switch_cpus.data           14                       # number of UpgradeReq hits
system.l2.UpgradeReq_hits::total                   14                       # number of UpgradeReq hits
system.l2.UpgradeReq_misses::.switch_cpus.data           48                       # number of UpgradeReq misses
system.l2.UpgradeReq_misses::total                 48                       # number of UpgradeReq misses
system.l2.UpgradeReq_miss_latency::.switch_cpus.data       234500                       # number of UpgradeReq miss cycles
system.l2.UpgradeReq_miss_latency::total       234500                       # number of UpgradeReq miss cycles
system.l2.UpgradeReq_accesses::.switch_cpus.data           62                       # number of UpgradeReq accesses(hits+misses)
system.l2.UpgradeReq_accesses::total               62                       # number of UpgradeReq accesses(hits+misses)
system.l2.UpgradeReq_miss_rate::.switch_cpus.data     0.774194                       # miss rate for UpgradeReq accesses
system.l2.UpgradeReq_miss_rate::total        0.774194                       # miss rate for UpgradeReq accesses
system.l2.UpgradeReq_avg_miss_latency::.switch_cpus.data  4885.416667                       # average UpgradeReq miss latency
system.l2.UpgradeReq_avg_miss_latency::total  4885.416667                       # average UpgradeReq miss latency
system.l2.UpgradeReq_mshr_misses::.switch_cpus.data           48                       # number of UpgradeReq MSHR misses
system.l2.UpgradeReq_mshr_misses::total            48                       # number of UpgradeReq MSHR misses
system.l2.UpgradeReq_mshr_miss_latency::.switch_cpus.data       957500                       # number of UpgradeReq MSHR miss cycles
system.l2.UpgradeReq_mshr_miss_latency::total       957500                       # number of UpgradeReq MSHR miss cycles
system.l2.UpgradeReq_mshr_miss_rate::.switch_cpus.data     0.774194                       # mshr miss rate for UpgradeReq accesses
system.l2.UpgradeReq_mshr_miss_rate::total     0.774194                       # mshr miss rate for UpgradeReq accesses
system.l2.UpgradeReq_avg_mshr_miss_latency::.switch_cpus.data 19947.916667                       # average UpgradeReq mshr miss latency
system.l2.UpgradeReq_avg_mshr_miss_latency::total 19947.916667                       # average UpgradeReq mshr miss latency
system.l2.ReadExReq_hits::.switch_cpus.data      1468541                       # number of ReadExReq hits
system.l2.ReadExReq_hits::total               1468541                       # number of ReadExReq hits
system.l2.ReadExReq_misses::.switch_cpus.data       448976                       # number of ReadExReq misses
system.l2.ReadExReq_misses::total              448976                       # number of ReadExReq misses
system.l2.ReadExReq_miss_latency::.switch_cpus.data  29243198500                       # number of ReadExReq miss cycles
system.l2.ReadExReq_miss_latency::total   29243198500                       # number of ReadExReq miss cycles
system.l2.ReadExReq_accesses::.switch_cpus.data      1917517                       # number of ReadExReq accesses(hits+misses)
system.l2.ReadExReq_accesses::total           1917517                       # number of ReadExReq accesses(hits+misses)
system.l2.ReadExReq_miss_rate::.switch_cpus.data     0.234144                       # miss rate for ReadExReq accesses
system.l2.ReadExReq_miss_rate::total         0.234144                       # miss rate for ReadExReq accesses
system.l2.ReadExReq_avg_miss_latency::.switch_cpus.data 65133.099542                       # average ReadExReq miss latency
system.l2.ReadExReq_avg_miss_latency::total 65133.099542                       # average ReadExReq miss latency
system.l2.ReadExReq_mshr_misses::.switch_cpus.data       448976                       # number of ReadExReq MSHR misses
system.l2.ReadExReq_mshr_misses::total         448976                       # number of ReadExReq MSHR misses
system.l2.ReadExReq_mshr_miss_latency::.switch_cpus.data  24753438500                       # number of ReadExReq MSHR miss cycles
system.l2.ReadExReq_mshr_miss_latency::total  24753438500                       # number of ReadExReq MSHR miss cycles
system.l2.ReadExReq_mshr_miss_rate::.switch_cpus.data     0.234144                       # mshr miss rate for ReadExReq accesses
[...]
system.cpu.dtb_walker_cache.blocked::no_targets            0                       # number of cycles access was blocked
system.cpu.dtb_walker_cache.avg_blocked_cycles::no_mshrs          nan                       # average number of cycles each access was blocked
system.cpu.dtb_walker_cache.avg_blocked_cycles::no_targets          nan                       # average number of cycles each access was blocked
system.cpu.dtb_walker_cache.replacements            0                       # number of replacements
system.cpu.dtb_walker_cache.tags.pwrStateResidencyTicks::UNDEFINED 2466440236000                       # Cumulative time (in ticks) in various power states
system.cpu.dtb_walker_cache.tags.tagsinuse            0                       # Cycle average of tags in use
system.cpu.dtb_walker_cache.tags.total_refs            0                       # Total number of references to valid blocks.
system.cpu.dtb_walker_cache.tags.sampled_refs            0                       # Sample count of references to valid blocks.
system.cpu.dtb_walker_cache.tags.avg_refs          nan                       # Average number of references to valid blocks.
system.cpu.dtb_walker_cache.tags.warmup_cycle            0                       # Cycle when the warmup percentage was hit.
system.cpu.dtb_walker_cache.tags.tag_accesses            0                       # Number of tag accesses
system.cpu.dtb_walker_cache.tags.data_accesses            0                       # Number of data accesses
system.cpu.dcache.pwrStateResidencyTicks::UNDEFINED 2466440236000                       # Cumulative time (in ticks) in various power states
system.cpu.dcache.demand_hits::.cpu.data    403315276                       # number of demand (read+write) hits
system.cpu.dcache.demand_hits::.switch_cpus.data    296891009                       # number of demand (read+write) hits
system.cpu.dcache.demand_hits::total        700206285                       # number of demand (read+write) hits
system.cpu.dcache.overall_hits::.cpu.data    403456844                       # number of overall hits
system.cpu.dcache.overall_hits::.switch_cpus.data    297374961                       # number of overall hits
system.cpu.dcache.overall_hits::total       700831805                       # number of overall hits
system.cpu.dcache.demand_misses::.cpu.data     18345105                       # number of demand (read+write) misses
system.cpu.dcache.demand_misses::.switch_cpus.data     40456359                       # number of demand (read+write) misses
system.cpu.dcache.demand_misses::total       58801464                       # number of demand (read+write) misses
system.cpu.dcache.overall_misses::.cpu.data     18413117                       # number of overall misses
system.cpu.dcache.overall_misses::.switch_cpus.data     40515211                       # number of overall misses
system.cpu.dcache.overall_misses::total      58928328                       # number of overall misses
system.cpu.dcache.demand_miss_latency::.switch_cpus.data 1719276032446                       # number of demand (read+write) miss cycles
system.cpu.dcache.demand_miss_latency::total 1719276032446                       # number of demand (read+write) miss cycles
system.cpu.dcache.overall_miss_latency::.switch_cpus.data 1719276032446                       # number of overall miss cycles
system.cpu.dcache.overall_miss_latency::total 1719276032446                       # number of overall miss cycles
system.cpu.dcache.demand_accesses::.cpu.data    421660381                       # number of demand (read+write) accesses
system.cpu.dcache.demand_accesses::.switch_cpus.data    337347368                       # number of demand (read+write) accesses
system.cpu.dcache.demand_accesses::total    759007749                       # number of demand (read+write) accesses
system.cpu.dcache.overall_accesses::.cpu.data    421869961                       # number of overall (read+write) accesses
system.cpu.dcache.overall_accesses::.switch_cpus.data    337890172                       # number of overall (read+write) accesses
system.cpu.dcache.overall_accesses::total    759760133                       # number of overall (read+write) accesses
system.cpu.dcache.demand_miss_rate::.cpu.data     0.043507                       # miss rate for demand accesses
system.cpu.dcache.demand_miss_rate::.switch_cpus.data     0.119925                       # miss rate for demand accesses
system.cpu.dcache.demand_miss_rate::total     0.077471                       # miss rate for demand accesses
system.cpu.dcache.overall_miss_rate::.cpu.data     0.043646                       # miss rate for overall accesses
system.cpu.dcache.overall_miss_rate::.switch_cpus.data     0.119906                       # miss rate for overall accesses
system.cpu.dcache.overall_miss_rate::total     0.077562                       # miss rate for overall accesses
system.cpu.dcache.demand_avg_miss_latency::.switch_cpus.data 42497.052996                       # average overall miss latency
system.cpu.dcache.demand_avg_miss_latency::total 29238.660324                       # average overall miss latency
system.cpu.dcache.overall_avg_miss_latency::.switch_cpus.data 42435.322192                       # average overall miss latency
system.cpu.dcache.overall_avg_miss_latency::total 29175.713800                       # average overall miss latency
system.cpu.dcache.blocked_cycles::no_mshrs      3878397                       # number of cycles access was blocked
system.cpu.dcache.blocked_cycles::no_targets       981390                       # number of cycles access was blocked
system.cpu.dcache.blocked::no_mshrs            157264                       # number of cycles access was blocked
system.cpu.dcache.blocked::no_targets           13238                       # number of cycles access was blocked
system.cpu.dcache.avg_blocked_cycles::no_mshrs    24.661696                       # average number of cycles each access was blocked
system.cpu.dcache.avg_blocked_cycles::no_targets    74.134310                       # average number of cycles each access was blocked
system.cpu.dcache.writebacks::.writebacks     12004703                       # number of writebacks
system.cpu.dcache.writebacks::total          12004703                       # number of writebacks
system.cpu.dcache.demand_mshr_hits::.switch_cpus.data     23682086                       # number of demand (read+write) MSHR hits
system.cpu.dcache.demand_mshr_hits::total     23682086                       # number of demand (read+write) MSHR hits
system.cpu.dcache.overall_mshr_hits::.switch_cpus.data     23682086                       # number of overall MSHR hits
system.cpu.dcache.overall_mshr_hits::total     23682086                       # number of overall MSHR hits
system.cpu.dcache.demand_mshr_misses::.switch_cpus.data     16774273                       # number of demand (read+write) MSHR misses
system.cpu.dcache.demand_mshr_misses::total     16774273                       # number of demand (read+write) MSHR misses
system.cpu.dcache.overall_mshr_misses::.switch_cpus.data     16802060                       # number of overall MSHR misses
system.cpu.dcache.overall_mshr_misses::total     16802060                       # number of overall MSHR misses
system.cpu.dcache.demand_mshr_miss_latency::.switch_cpus.data 670239395448                       # number of demand (read+write) MSHR miss cycles
system.cpu.dcache.demand_mshr_miss_latency::total 670239395448                       # number of demand (read+write) MSHR miss cycles
system.cpu.dcache.overall_mshr_miss_latency::.switch_cpus.data 671807563448                       # number of overall MSHR miss cycles
system.cpu.dcache.overall_mshr_miss_latency::total 671807563448                       # number of overall MSHR miss cycles
system.cpu.dcache.demand_mshr_miss_rate::.switch_cpus.data     0.049724                       # mshr miss rate for demand accesses
system.cpu.dcache.demand_mshr_miss_rate::total     0.022100                       # mshr miss rate for demand accesses
system.cpu.dcache.overall_mshr_miss_rate::.switch_cpus.data     0.049726                       # mshr miss rate for overall accesses
system.cpu.dcache.overall_mshr_miss_rate::total     0.022115                       # mshr miss rate for overall accesses
system.cpu.dcache.demand_avg_mshr_miss_latency::.switch_cpus.data 39956.390089                       # average overall mshr miss latency
system.cpu.dcache.demand_avg_mshr_miss_latency::total 39956.390089                       # average overall mshr miss latency
system.cpu.dcache.overall_avg_mshr_miss_latency::.switch_cpus.data 39983.642687                       # average overall mshr miss latency
system.cpu.dcache.overall_avg_mshr_miss_latency::total 39983.642687                       # average overall mshr miss latency
system.cpu.dcache.replacements               35214859                       # number of replacements
system.cpu.dcache.ReadReq_hits::.cpu.data    253397590                       # number of ReadReq hits
system.cpu.dcache.ReadReq_hits::.switch_cpus.data    207957580                       # number of ReadReq hits
system.cpu.dcache.ReadReq_hits::total       461355170                       # number of ReadReq hits
system.cpu.dcache.ReadReq_misses::.cpu.data     15513287                       # number of ReadReq misses
system.cpu.dcache.ReadReq_misses::.switch_cpus.data     38521492                       # number of ReadReq misses
system.cpu.dcache.ReadReq_misses::total      54034779                       # number of ReadReq misses
system.cpu.dcache.ReadReq_miss_latency::.switch_cpus.data 1669012170000                       # number of ReadReq miss cycles
system.cpu.dcache.ReadReq_miss_latency::total 1669012170000                       # number of ReadReq miss cycles
system.cpu.dcache.ReadReq_accesses::.cpu.data    268910877                       # number of ReadReq accesses(hits+misses)
system.cpu.dcache.ReadReq_accesses::.switch_cpus.data    246479072                       # number of ReadReq accesses(hits+misses)
system.cpu.dcache.ReadReq_accesses::total    515389949                       # number of ReadReq accesses(hits+misses)
system.cpu.dcache.ReadReq_miss_rate::.cpu.data     0.057689                       # miss rate for ReadReq accesses
system.cpu.dcache.ReadReq_miss_rate::.switch_cpus.data     0.156287                       # miss rate for ReadReq accesses
system.cpu.dcache.ReadReq_miss_rate::total     0.104843                       # miss rate for ReadReq accesses
system.cpu.dcache.ReadReq_avg_miss_latency::.switch_cpus.data 43326.778984                       # average ReadReq miss latency
system.cpu.dcache.ReadReq_avg_miss_latency::total 30887.739358                       # average ReadReq miss latency
system.cpu.dcache.ReadReq_mshr_hits::.switch_cpus.data     23662858                       # number of ReadReq MSHR hits
system.cpu.dcache.ReadReq_mshr_hits::total     23662858                       # number of ReadReq MSHR hits
system.cpu.dcache.ReadReq_mshr_misses::.switch_cpus.data     14858634                       # number of ReadReq MSHR misses
system.cpu.dcache.ReadReq_mshr_misses::total     14858634                       # number of ReadReq MSHR misses
system.cpu.dcache.ReadReq_mshr_miss_latency::.switch_cpus.data 622467325000                       # number of ReadReq MSHR miss cycles
system.cpu.dcache.ReadReq_mshr_miss_latency::total 622467325000                       # number of ReadReq MSHR miss cycles
system.cpu.dcache.ReadReq_mshr_miss_rate::.switch_cpus.data     0.060284                       # mshr miss rate for ReadReq accesses
system.cpu.dcache.ReadReq_mshr_miss_rate::total     0.028830                       # mshr miss rate for ReadReq accesses
system.cpu.dcache.ReadReq_avg_mshr_miss_latency::.switch_cpus.data 41892.634612                       # average ReadReq mshr miss latency
system.cpu.dcache.ReadReq_avg_mshr_miss_latency::total 41892.634612                       # average ReadReq mshr miss latency
system.cpu.dcache.WriteReq_hits::.cpu.data    149917686                       # number of WriteReq hits
system.cpu.dcache.WriteReq_hits::.switch_cpus.data     88933429                       # number of WriteReq hits
system.cpu.dcache.WriteReq_hits::total      238851115                       # number of WriteReq hits
system.cpu.dcache.WriteReq_misses::.cpu.data      2831818                       # number of WriteReq misses
system.cpu.dcache.WriteReq_misses::.switch_cpus.data      1934867                       # number of WriteReq misses
system.cpu.dcache.WriteReq_misses::total      4766685                       # number of WriteReq misses
system.cpu.dcache.WriteReq_miss_latency::.switch_cpus.data  50263862446                       # number of WriteReq miss cycles
system.cpu.dcache.WriteReq_miss_latency::total  50263862446                       # number of WriteReq miss cycles
system.cpu.dcache.WriteReq_accesses::.cpu.data    152749504                       # number of WriteReq accesses(hits+misses)
system.cpu.dcache.WriteReq_accesses::.switch_cpus.data     90868296                       # number of WriteReq accesses(hits+misses)
system.cpu.dcache.WriteReq_accesses::total    243617800                       # number of WriteReq accesses(hits+misses)
system.cpu.dcache.WriteReq_miss_rate::.cpu.data     0.018539                       # miss rate for WriteReq accesses
system.cpu.dcache.WriteReq_miss_rate::.switch_cpus.data     0.021293                       # miss rate for WriteReq accesses
system.cpu.dcache.WriteReq_miss_rate::total     0.019566                       # miss rate for WriteReq accesses
system.cpu.dcache.WriteReq_avg_miss_latency::.switch_cpus.data 25977.941867                       # average WriteReq miss latency
system.cpu.dcache.WriteReq_avg_miss_latency::total 10544.825690                       # average WriteReq miss latency
system.cpu.dcache.WriteReq_mshr_hits::.switch_cpus.data        19228                       # number of WriteReq MSHR hits
system.cpu.dcache.WriteReq_mshr_hits::total        19228                       # number of WriteReq MSHR hits
system.cpu.dcache.WriteReq_mshr_misses::.switch_cpus.data      1915639                       # number of WriteReq MSHR misses
system.cpu.dcache.WriteReq_mshr_misses::total      1915639                       # number of WriteReq MSHR misses
system.cpu.dcache.WriteReq_mshr_miss_latency::.switch_cpus.data  47772070448                       # number of WriteReq MSHR miss cycles
system.cpu.dcache.WriteReq_mshr_miss_latency::total  47772070448                       # number of WriteReq MSHR miss cycles
system.cpu.dcache.WriteReq_mshr_miss_rate::.switch_cpus.data     0.021081                       # mshr miss rate for WriteReq accesses
system.cpu.dcache.WriteReq_mshr_miss_rate::total     0.007863                       # mshr miss rate for WriteReq accesses
system.cpu.dcache.WriteReq_avg_mshr_miss_latency::.switch_cpus.data 24937.929562                       # average WriteReq mshr miss latency
system.cpu.dcache.WriteReq_avg_mshr_miss_latency::total 24937.929562                       # average WriteReq mshr miss latency
system.cpu.dcache.SoftPFReq_hits::.cpu.data       141568                       # number of SoftPFReq hits
system.cpu.dcache.SoftPFReq_hits::.switch_cpus.data       483952                       # number of SoftPFReq hits
system.cpu.dcache.SoftPFReq_hits::total        625520                       # number of SoftPFReq hits
system.cpu.dcache.SoftPFReq_misses::.cpu.data        68012                       # number of SoftPFReq misses
system.cpu.dcache.SoftPFReq_misses::.switch_cpus.data        58852                       # number of SoftPFReq misses
system.cpu.dcache.SoftPFReq_misses::total       126864                       # number of SoftPFReq misses
system.cpu.dcache.SoftPFReq_accesses::.cpu.data       209580                       # number of SoftPFReq accesses(hits+misses)
system.cpu.dcache.SoftPFReq_accesses::.switch_cpus.data       542804                       # number of SoftPFReq accesses(hits+misses)
system.cpu.dcache.SoftPFReq_accesses::total       752384                       # number of SoftPFReq accesses(hits+misses)
system.cpu.dcache.SoftPFReq_miss_rate::.cpu.data     0.324516                       # miss rate for SoftPFReq accesses
system.cpu.dcache.SoftPFReq_miss_rate::.switch_cpus.data     0.108422                       # miss rate for SoftPFReq accesses
system.cpu.dcache.SoftPFReq_miss_rate::total     0.168616                       # miss rate for SoftPFReq accesses
system.cpu.dcache.SoftPFReq_mshr_misses::.switch_cpus.data        27787                       # number of SoftPFReq MSHR misses
system.cpu.dcache.SoftPFReq_mshr_misses::total        27787                       # number of SoftPFReq MSHR misses
system.cpu.dcache.SoftPFReq_mshr_miss_latency::.switch_cpus.data   1568168000                       # number of SoftPFReq MSHR miss cycles
system.cpu.dcache.SoftPFReq_mshr_miss_latency::total   1568168000                       # number of SoftPFReq MSHR miss cycles
system.cpu.dcache.SoftPFReq_mshr_miss_rate::.switch_cpus.data     0.051192                       # mshr miss rate for SoftPFReq accesses
system.cpu.dcache.SoftPFReq_mshr_miss_rate::total     0.036932                       # mshr miss rate for SoftPFReq accesses
system.cpu.dcache.SoftPFReq_avg_mshr_miss_latency::.switch_cpus.data 56435.311477                       # average SoftPFReq mshr miss latency
system.cpu.dcache.SoftPFReq_avg_mshr_miss_latency::total 56435.311477                       # average SoftPFReq mshr miss latency
system.cpu.dcache.tags.pwrStateResidencyTicks::UNDEFINED 2466440236000                       # Cumulative time (in ticks) in various power states
system.cpu.dcache.tags.tagsinuse           255.999560                       # Cycle average of tags in use
system.cpu.dcache.tags.total_refs           735826673                       # Total number of references to valid blocks.
system.cpu.dcache.tags.sampled_refs          35214859                       # Sample count of references to valid blocks.
system.cpu.dcache.tags.avg_refs             20.895346                       # Average number of references to valid blocks.
system.cpu.dcache.tags.warmup_cycle              1000                       # Cycle when the warmup percentage was hit.
system.cpu.dcache.tags.occ_blocks::.cpu.data   120.876873                       # Average occupied blocks per requestor
system.cpu.dcache.tags.occ_blocks::.switch_cpus.data   135.122687                       # Average occupied blocks per requestor
system.cpu.dcache.tags.occ_percent::.cpu.data     0.472175                       # Average percentage of cache occupancy
system.cpu.dcache.tags.occ_percent::.switch_cpus.data     0.527823                       # Average percentage of cache occupancy
system.cpu.dcache.tags.occ_percent::total     0.999998                       # Average percentage of cache occupancy
system.cpu.dcache.tags.occ_task_id_blocks::1024          256                       # Occupied blocks per task id
system.cpu.dcache.tags.age_task_id_blocks_1024::0           78                       # Occupied blocks per task id
system.cpu.dcache.tags.age_task_id_blocks_1024::1           74                       # Occupied blocks per task id
system.cpu.dcache.tags.age_task_id_blocks_1024::2          100                       # Occupied blocks per task id
system.cpu.dcache.tags.age_task_id_blocks_1024::3            4                       # Occupied blocks per task id
system.cpu.dcache.tags.occ_task_id_percent::1024            1                       # Percentage of cache occupancy per task id
system.cpu.dcache.tags.tag_accesses        1554735381                       # Number of tag accesses
system.cpu.dcache.tags.data_accesses       1554735381                       # Number of data accesses

---------- End Simulation Statistics   ----------
