
---------- Begin Simulation Statistics ----------
final_tick                               1873473953500                       # Number of ticks from beginning of simulation (restored from checkpoints and never reset)
host_inst_rate                                  81113                       # Simulator instruction rate (inst/s)
host_mem_usage                                4368368                       # Number of bytes of host memory used
host_op_rate                                   146262                       # Simulator op (including micro ops) rate (op/s)
host_seconds                                 18492.66                       # Real time elapsed on the host
host_tick_rate                               43029191                       # Simulator tick rate (ticks/s)
sim_freq                                 1000000000000                       # Frequency of simulated ticks
sim_insts                                  1500000001                       # Number of instructions simulated
sim_ops                                    2704776769                       # Number of ops (including micro ops) simulated
sim_seconds                                  0.795724                       # Number of seconds simulated
sim_ticks                                795724270000                       # Number of ticks simulated
system.cpu.committedInsts                           0                       # Number of instructions committed
system.cpu.committedOps                             0                       # Number of ops (including micro ops) committed
system.cpu.dtb.rdAccesses                           0                       # TLB accesses on read requests
system.cpu.dtb.rdMisses                             0                       # TLB misses on read requests
system.cpu.dtb.wrAccesses                           0                       # TLB accesses on write requests
system.cpu.dtb.wrMisses                             0                       # TLB misses on write requests
system.cpu.idle_fraction                            0                       # Percentage of idle cycles
system.cpu.itb.rdAccesses                           0                       # TLB accesses on read requests
system.cpu.itb.rdMisses                             0                       # TLB misses on read requests
system.cpu.itb.wrAccesses                           0                       # TLB accesses on write requests
system.cpu.itb.wrMisses                             0                       # TLB misses on write requests
system.cpu.not_idle_fraction                        1                       # Percentage of non-idle cycles
system.cpu.numCycles                                0                       # number of cpu cycles simulated
system.cpu.numWorkItemsCompleted                    0                       # number of work items this cpu completed
system.cpu.numWorkItemsStarted                      0                       # number of work items this cpu started
system.cpu.num_busy_cycles                          0                       # Number of busy cycles
system.cpu.num_conditional_control_insts            0                       # number of instructions that are conditional controls
system.cpu.num_fp_alu_accesses                      0                       # Number of float alu accesses
system.cpu.num_fp_insts                             0                       # number of float instructions
system.cpu.num_fp_register_reads                    0                       # number of times the floating registers were read
system.cpu.num_fp_register_writes                   0                       # number of times the floating registers were written
system.cpu.num_func_calls                           0                       # number of times a function call or return occured
system.cpu.num_idle_cycles                          0                       # Number of idle cycles
system.cpu.num_int_alu_accesses                     0                       # Number of integer alu accesses
system.cpu.num_int_insts                            0                       # number of integer instructions
system.cpu.num_int_register_reads                   0                       # number of times the integer registers were read
system.cpu.num_int_register_writes                  0                       # number of times the integer registers were written
system.cpu.num_load_insts                           0                       # Number of load instructions
system.cpu.num_mem_refs                             0                       # number of memory refs
system.cpu.num_store_insts                          0                       # Number of store instructions
system.cpu.num_vec_alu_accesses                     0                       # Number of vector alu accesses
system.cpu.num_vec_insts                            0                       # number of vector instructions
system.cpu.num_vec_register_reads                   0                       # number of times the vector registers were read
system.cpu.num_vec_register_writes                  0                       # number of times the vector registers were written
system.cpu.op_class::No_OpClass                     0                       # Class of executed instruction
system.cpu.op_class::IntAlu                         0                       # Class of executed instruction
system.cpu.op_class::IntMult                        0                       # Class of executed instruction
system.cpu.op_class::IntDiv                         0                       # Class of executed instruction
system.cpu.op_class::FloatAdd                       0                       # Class of executed instruction
system.cpu.op_class::FloatCmp                       0                       # Class of executed instruction
system.cpu.op_class::FloatCvt                       0                       # Class of executed instruction
system.cpu.op_class::FloatMult                      0                       # Class of executed instruction
system.cpu.op_class::FloatMultAcc                   0                       # Class of executed instruction
system.cpu.op_class::FloatDiv                       0                       # Class of executed instruction
system.cpu.op_class::FloatMisc                      0                       # Class of executed instruction
system.cpu.op_class::FloatSqrt                      0                       # Class of executed instruction
system.cpu.op_class::SimdAdd                        0                       # Class of executed instruction
system.cpu.op_class::SimdAddAcc                     0                       # Class of executed instruction
system.cpu.op_class::SimdAlu                        0                       # Class of executed instruction
system.cpu.op_class::SimdCmp                        0                       # Class of executed instruction
system.cpu.op_class::SimdCvt                        0                       # Class of executed instruction
system.cpu.op_class::SimdMisc                       0                       # Class of executed instruction
system.cpu.op_class::SimdMult                       0                       # Class of executed instruction
system.cpu.op_class::SimdMultAcc                    0                       # Class of executed instruction
system.cpu.op_class::SimdShift                      0                       # Class of executed instruction
system.cpu.op_class::SimdShiftAcc                   0                       # Class of executed instruction
system.cpu.op_class::SimdDiv                        0                       # Class of executed instruction
system.cpu.op_class::SimdSqrt                       0                       # Class of executed instruction
system.cpu.op_class::SimdFloatAdd                   0                       # Class of executed instruction
system.cpu.op_class::SimdFloatAlu                   0                       # Class of executed instruction
system.cpu.op_class::SimdFloatCmp                   0                       # Class of executed instruction
system.cpu.op_class::SimdFloatCvt                   0                       # Class of executed instruction
system.cpu.op_class::SimdFloatDiv                   0                       # Class of executed instruction
system.cpu.op_class::SimdFloatMisc                  0                       # Class of executed instruction
system.cpu.op_class::SimdFloatMult                  0                       # Class of executed instruction
system.cpu.op_class::SimdFloatMultAcc               0                       # Class of executed instruction
system.cpu.op_class::SimdFloatSqrt                  0                       # Class of executed instruction
system.cpu.op_class::SimdReduceAdd                  0                       # Class of executed instruction
system.cpu.op_class::SimdReduceAlu                  0                       # Class of executed instruction
system.cpu.op_class::SimdReduceCmp                  0                       # Class of executed instruction
system.cpu.op_class::SimdFloatReduceAdd             0                       # Class of executed instruction
system.cpu.op_class::SimdFloatReduceCmp             0                       # Class of executed instruction
system.cpu.op_class::SimdAes                        0                       # Class of executed instruction
system.cpu.op_class::SimdAesMix                     0                       # Class of executed instruction
system.cpu.op_class::SimdSha1Hash                   0                       # Class of executed instruction
system.cpu.op_class::SimdSha1Hash2                  0                       # Class of executed instruction
system.cpu.op_class::SimdSha256Hash                 0                       # Class of executed instruction
system.cpu.op_class::SimdSha256Hash2                0                       # Class of executed instruction
system.cpu.op_class::SimdShaSigma2                  0                       # Class of executed instruction
system.cpu.op_class::SimdShaSigma3                  0                       # Class of executed instruction
system.cpu.op_class::SimdPredAlu                    0                       # Class of executed instruction
system.cpu.op_class::MemRead                        0                       # Class of executed instruction
system.cpu.op_class::MemWrite                       0                       # Class of executed instruction
system.cpu.op_class::FloatMemRead                   0                       # Class of executed instruction
system.cpu.op_class::FloatMemWrite                  0                       # Class of executed instruction
system.cpu.op_class::IprAccess                      0                       # Class of executed instruction
system.cpu.op_class::InstPrefetch                   0                       # Class of executed instruction
system.cpu.op_class::total                          0                       # Class of executed instruction
system.cpu.workload.numSyscalls                     0                       # Number of system calls
system.membus.snoop_filter.hit_multi_requests            0                       # Number of requests hitting in the snoop filter with multiple (>1) holders of the requested data.
system.membus.snoop_filter.hit_multi_snoops            0                       # Number of snoops hitting in the snoop filter with multiple (>1) holders of the requested data.
system.membus.snoop_filter.hit_single_requests     21115250                       # Number of requests hitting in the snoop filter with a single holder of the requested data.
system.membus.snoop_filter.hit_single_snoops            0                       # Number of snoops hitting in the snoop filter with a single holder of the requested data.
system.membus.snoop_filter.tot_requests      42230501                       # Total number of requests made to the snoop filter.
system.membus.snoop_filter.tot_snoops               0                       # Total number of snoops made to the snoop filter.
system.switch_cpus.branchPred.BTBCorrect            0                       # Number of correct BTB predictions (this stat may not work properly.
system.switch_cpus.branchPred.BTBHitPct      0.000000                       # BTB Hit Percentage
system.switch_cpus.branchPred.BTBHits               0                       # Number of BTB hits
system.switch_cpus.branchPred.BTBLookups    243890796                       # Number of BTB lookups
system.switch_cpus.branchPred.RASInCorrect            7                       # Number of incorrect RAS predictions.
system.switch_cpus.branchPred.condIncorrect     23823964                       # Number of conditional branches incorrect
system.switch_cpus.branchPred.condPredicted    261322161                       # Number of conditional branches predicted
system.switch_cpus.branchPred.indirectHits     87546018                       # Number of indirect target hits.
system.switch_cpus.branchPred.indirectLookups    243890796                       # Number of indirect predictor lookups.
system.switch_cpus.branchPred.indirectMisses    156344778                       # Number of indirect misses.
system.switch_cpus.branchPred.lookups       325526376                       # Number of BP lookups
system.switch_cpus.branchPred.usedRAS        30168812                       # Number of times the RAS was used to get a target.
system.switch_cpus.branchPredindirectMispredicted     14280318                       # Number of mispredicted indirect branches.
system.switch_cpus.cc_regfile_reads         797108233                       # number of cc regfile reads
system.switch_cpus.cc_regfile_writes        350744987                       # number of cc regfile writes
system.switch_cpus.commit.amos                      0                       # Number of atomic instructions committed
system.switch_cpus.commit.branchMispredicts     23823992                       # The number of times a branch was mispredicted
system.switch_cpus.commit.branches          136407774                       # Number of branches committed
system.switch_cpus.commit.bw_lim_events      55815549                       # number cycles where commit BW limit reached
system.switch_cpus.commit.commitSquashedInsts    814315145                       # The number of squashed insts skipped by commit
system.switch_cpus.commit.committedInsts    500000001                       # Number of instructions committed
system.switch_cpus.commit.committedOps      886946162                       # Number of ops (including micro ops) committed
system.switch_cpus.commit.committed_per_cycle::samples   1465068724                       # Number of insts commited each cycle
system.switch_cpus.commit.committed_per_cycle::mean     0.605396                       # Number of insts commited each cycle
system.switch_cpus.commit.committed_per_cycle::stdev     1.785545                       # Number of insts commited each cycle
system.switch_cpus.commit.committed_per_cycle::underflows            0      0.00%      0.00% # Number of insts commited each cycle
system.switch_cpus.commit.committed_per_cycle::0   1231589949     84.06%     84.06% # Number of insts commited each cycle
system.switch_cpus.commit.committed_per_cycle::1     75510252      5.15%     89.22% # Number of insts commited each cycle
system.switch_cpus.commit.committed_per_cycle::2     31155736      2.13%     91.34% # Number of insts commited each cycle
system.switch_cpus.commit.committed_per_cycle::3     30092180      2.05%     93.40% # Number of insts commited each cycle
system.switch_cpus.commit.committed_per_cycle::4     17899575      1.22%     94.62% # Number of insts commited each cycle
system.switch_cpus.commit.committed_per_cycle::5      7547180      0.52%     95.14% # Number of insts commited each cycle
system.switch_cpus.commit.committed_per_cycle::6      5218818      0.36%     95.49% # Number of insts commited each cycle
system.switch_cpus.commit.committed_per_cycle::7     10239485      0.70%     96.19% # Number of insts commited each cycle
system.switch_cpus.commit.committed_per_cycle::8     55815549      3.81%    100.00% # Number of insts commited each cycle
system.switch_cpus.commit.committed_per_cycle::overflows            0      0.00%    100.00% # Number of insts commited each cycle
system.switch_cpus.commit.committed_per_cycle::min_value            0                       # Number of insts commited each cycle
system.switch_cpus.commit.committed_per_cycle::max_value            8                       # Number of insts commited each cycle
system.switch_cpus.commit.committed_per_cycle::total   1465068724                       # Number of insts commited each cycle
system.switch_cpus.commit.fp_insts                  0                       # Number of committed floating point instructions.
system.switch_cpus.commit.function_calls     14569997                       # Number of function calls committed.
system.switch_cpus.commit.int_insts         882666223                       # Number of committed integer instructions.
system.switch_cpus.commit.loads             185936953                       # Number of loads committed
system.switch_cpus.commit.membars                   0                       # Number of memory barriers committed
system.switch_cpus.commit.op_class_0::No_OpClass      3997115      0.45%      0.45% # Class of committed instruction
system.switch_cpus.commit.op_class_0::IntAlu    651449881     73.45%     73.90% # Class of committed instruction
system.switch_cpus.commit.op_class_0::IntMult       959676      0.11%     74.01% # Class of committed instruction
system.switch_cpus.commit.op_class_0::IntDiv      2975866      0.34%     74.34% # Class of committed instruction
system.switch_cpus.commit.op_class_0::FloatAdd            0      0.00%     74.34% # Class of committed instruction
system.switch_cpus.commit.op_class_0::FloatCmp            0      0.00%     74.34% # Class of committed instruction
system.switch_cpus.commit.op_class_0::FloatCvt            0      0.00%     74.34% # Class of committed instruction
system.switch_cpus.commit.op_class_0::FloatMult            0      0.00%     74.34% # Class of committed instruction
system.switch_cpus.commit.op_class_0::FloatMultAcc            0      0.00%     74.34% # Class of committed instruction
system.switch_cpus.commit.op_class_0::FloatDiv            0      0.00%     74.34% # Class of committed instruction
system.switch_cpus.commit.op_class_0::FloatMisc            0      0.00%     74.34% # Class of committed instruction
system.switch_cpus.commit.op_class_0::FloatSqrt            0      0.00%     74.34% # Class of committed instruction
system.switch_cpus.commit.op_class_0::SimdAdd            0      0.00%     74.34% # Class of committed instruction
system.switch_cpus.commit.op_class_0::SimdAddAcc            0      0.00%     74.34% # Class of committed instruction
system.switch_cpus.commit.op_class_0::SimdAlu            0      0.00%     74.34% # Class of committed instruction
system.switch_cpus.commit.op_class_0::SimdCmp            0      0.00%     74.34% # Class of committed instruction
system.switch_cpus.commit.op_class_0::SimdCvt            0      0.00%     74.34% # Class of committed instruction
system.switch_cpus.commit.op_class_0::SimdMisc            0      0.00%     74.34% # Class of committed instruction
system.switch_cpus.commit.op_class_0::SimdMult            0      0.00%     74.34% # Class of committed instruction
system.switch_cpus.commit.op_class_0::SimdMultAcc            0      0.00%     74.34% # Class of committed instruction
system.switch_cpus.commit.op_class_0::SimdShift            0      0.00%     74.34% # Class of committed instruction
system.switch_cpus.commit.op_class_0::SimdShiftAcc            0      0.00%     74.34% # Class of committed instruction
system.switch_cpus.commit.op_class_0::SimdDiv            0      0.00%     74.34% # Class of committed instruction
system.switch_cpus.commit.op_class_0::SimdSqrt            0      0.00%     74.34% # Class of committed instruction
system.switch_cpus.commit.op_class_0::SimdFloatAdd            0      0.00%     74.34% # Class of committed instruction
system.switch_cpus.commit.op_class_0::SimdFloatAlu            0      0.00%     74.34% # Class of committed instruction
system.switch_cpus.commit.op_class_0::SimdFloatCmp            0      0.00%     74.34% # Class of committed instruction
system.switch_cpus.commit.op_class_0::SimdFloatCvt            0      0.00%     74.34% # Class of committed instruction
system.switch_cpus.commit.op_class_0::SimdFloatDiv            0      0.00%     74.34% # Class of committed instruction
system.switch_cpus.commit.op_class_0::SimdFloatMisc            0      0.00%     74.34% # Class of committed instruction
system.switch_cpus.commit.op_class_0::SimdFloatMult            0      0.00%     74.34% # Class of committed instruction
system.switch_cpus.commit.op_class_0::SimdFloatMultAcc            0      0.00%     74.34% # Class of committed instruction
system.switch_cpus.commit.op_class_0::SimdFloatSqrt            0      0.00%     74.34% # Class of committed instruction
system.switch_cpus.commit.op_class_0::SimdReduceAdd            0      0.00%     74.34% # Class of committed instruction
system.switch_cpus.commit.op_class_0::SimdReduceAlu            0      0.00%     74.34% # Class of committed instruction
system.switch_cpus.commit.op_class_0::SimdReduceCmp            0      0.00%     74.34% # Class of committed instruction
system.switch_cpus.commit.op_class_0::SimdFloatReduceAdd            0      0.00%     74.34% # Class of committed instruction
system.switch_cpus.commit.op_class_0::SimdFloatReduceCmp            0      0.00%     74.34% # Class of committed instruction
system.switch_cpus.commit.op_class_0::SimdAes            0      0.00%     74.34% # Class of committed instruction
system.switch_cpus.commit.op_class_0::SimdAesMix            0      0.00%     74.34% # Class of committed instruction
system.switch_cpus.commit.op_class_0::SimdSha1Hash            0      0.00%     74.34% # Class of committed instruction
system.switch_cpus.commit.op_class_0::SimdSha1Hash2            0      0.00%     74.34% # Class of committed instruction
system.switch_cpus.commit.op_class_0::SimdSha256Hash            0      0.00%     74.34% # Class of committed instruction
system.switch_cpus.commit.op_class_0::SimdSha256Hash2            0      0.00%     74.34% # Class of committed instruction
system.switch_cpus.commit.op_class_0::SimdShaSigma2            0      0.00%     74.34% # Class of committed instruction
system.switch_cpus.commit.op_class_0::SimdShaSigma3            0      0.00%     74.34% # Class of committed instruction
system.switch_cpus.commit.op_class_0::SimdPredAlu            0      0.00%     74.34% # Class of committed instruction
system.switch_cpus.commit.op_class_0::MemRead    185936953     20.96%     95.31% # Class of committed instruction
system.switch_cpus.commit.op_class_0::MemWrite     41626670      4.69%    100.00% # Class of committed instruction
system.switch_cpus.commit.op_class_0::FloatMemRead            0      0.00%    100.00% # Class of committed instruction
system.switch_cpus.commit.op_class_0::FloatMemWrite            0      0.00%    100.00% # Class of committed instruction
system.switch_cpus.commit.op_class_0::IprAccess            0      0.00%    100.00% # Class of committed instruction
system.switch_cpus.commit.op_class_0::InstPrefetch            0      0.00%    100.00% # Class of committed instruction
system.switch_cpus.commit.op_class_0::total    886946161                       # Class of committed instruction
system.switch_cpus.commit.refs              227563623                       # Number of memory references committed
system.switch_cpus.commit.swp_count                 0                       # Number of s/w prefetches committed
system.switch_cpus.commit.vec_insts                 0                       # Number of committed Vector instructions.
system.switch_cpus.committedInsts           500000000                       # Number of Instructions Simulated
system.switch_cpus.committedOps             886946161                       # Number of Ops (including micro ops) Simulated
system.switch_cpus.cpi                       3.182897                       # CPI: Cycles Per Instruction
system.switch_cpus.cpi_total                 3.182897                       # CPI: Total CPI of All Threads
system.switch_cpus.decode.BlockedCycles    1095975985                       # Number of cycles decode is blocked
system.switch_cpus.decode.DecodedInsts     2029365736                       # Number of instructions handled by decode
system.switch_cpus.decode.IdleCycles        161144936                       # Number of cycles decode is idle
system.switch_cpus.decode.RunCycles         270112340                       # Number of cycles decode is running
system.switch_cpus.decode.SquashCycles       23851247                       # Number of cycles decode is squashing
system.switch_cpus.decode.UnblockCycles      40363939                       # Number of cycles decode is unblocking
system.switch_cpus.dtb.rdAccesses           304665012                       # TLB accesses on read requests
system.switch_cpus.dtb.rdMisses               9325000                       # TLB misses on read requests
system.switch_cpus.dtb.wrAccesses            61286914                       # TLB accesses on write requests
system.switch_cpus.dtb.wrMisses                410281                       # TLB misses on write requests
system.switch_cpus.fetch.Branches           325526376                       # Number of branches that fetch encountered
system.switch_cpus.fetch.CacheLines         198680464                       # Number of cache lines fetched
system.switch_cpus.fetch.Cycles            1354204718                       # Number of cycles fetch has run and was not squashing or blocked
system.switch_cpus.fetch.IcacheSquashes       6371264                       # Number of outstanding Icache misses that were squashed
system.switch_cpus.fetch.Insts             1263906912                       # Number of instructions fetch has processed
system.switch_cpus.fetch.MiscStallCycles           27                       # Number of cycles fetch has spent waiting on interrupts, or bad addresses, or out of MSHRs
system.switch_cpus.fetch.PendingTrapStallCycles          596                       # Number of stall cycles due to pending traps
system.switch_cpus.fetch.SquashCycles        47702494                       # Number of cycles fetch has spent squashing
system.switch_cpus.fetch.TlbCycles                  9                       # Number of cycles fetch has spent waiting for tlb
system.switch_cpus.fetch.branchRate          0.204547                       # Number of branch fetches per cycle
system.switch_cpus.fetch.icacheStallCycles    213391863                       # Number of cycles fetch is stalled on an Icache miss
system.switch_cpus.fetch.predictedBranches    117714830                       # Number of branches that fetch has predicted taken
system.switch_cpus.fetch.rate                0.794186                       # Number of inst fetches per cycle
system.switch_cpus.fetch.rateDist::samples   1591448460                       # Number of instructions fetched each cycle (Total)
system.switch_cpus.fetch.rateDist::mean      1.415927                       # Number of instructions fetched each cycle (Total)
system.switch_cpus.fetch.rateDist::stdev     2.792273                       # Number of instructions fetched each cycle (Total)
system.switch_cpus.fetch.rateDist::underflows            0      0.00%      0.00% # Number of instructions fetched each cycle (Total)
system.switch_cpus.fetch.rateDist::0       1214546977     76.32%     76.32% # Number of instructions fetched each cycle (Total)
system.switch_cpus.fetch.rateDist::1         13460163      0.85%     77.16% # Number of instructions fetched each cycle (Total)
system.switch_cpus.fetch.rateDist::2         34180121      2.15%     79.31% # Number of instructions fetched each cycle (Total)
system.switch_cpus.fetch.rateDist::3         25672079      1.61%     80.92% # Number of instructions fetched each cycle (Total)
system.switch_cpus.fetch.rateDist::4         44377253      2.79%     83.71% # Number of instructions fetched each cycle (Total)
system.switch_cpus.fetch.rateDist::5         40474503      2.54%     86.26% # Number of instructions fetched each cycle (Total)
system.switch_cpus.fetch.rateDist::6         12557069      0.79%     87.04% # Number of instructions fetched each cycle (Total)
system.switch_cpus.fetch.rateDist::7         10127710      0.64%     87.68% # Number of instructions fetched each cycle (Total)
system.switch_cpus.fetch.rateDist::8        196052585     12.32%    100.00% # Number of instructions fetched each cycle (Total)
system.switch_cpus.fetch.rateDist::overflows            0      0.00%    100.00% # Number of instructions fetched each cycle (Total)
system.switch_cpus.fetch.rateDist::min_value            0                       # Number of instructions fetched each cycle (Total)
system.switch_cpus.fetch.rateDist::max_value            8                       # Number of instructions fetched each cycle (Total)
system.switch_cpus.fetch.rateDist::total   1591448460                       # Number of instructions fetched each cycle (Total)
system.switch_cpus.idleCycles                      80                       # Total number of cycles that the CPU has spent unscheduled due to idling
system.switch_cpus.iew.branchMispredicts     30895107                       # Number of branch mispredicts detected at execute
system.switch_cpus.iew.exec_branches        196118229                       # Number of branches executed
system.switch_cpus.iew.exec_nop                     0                       # number of nop insts executed
system.switch_cpus.iew.exec_rate             1.001780                       # Inst execution rate
system.switch_cpus.iew.exec_refs            551194726                       # number of memory reference insts executed
system.switch_cpus.iew.exec_stores           61286914                       # Number of stores executed
system.switch_cpus.iew.exec_swp                     0                       # number of swp insts executed
system.switch_cpus.iew.iewBlockCycles       434025860                       # Number of cycles IEW is blocking
system.switch_cpus.iew.iewDispLoadInsts     349584749                       # Number of dispatched load instructions
system.switch_cpus.iew.iewDispNonSpecInsts            0                       # Number of dispatched non-speculative instructions
system.switch_cpus.iew.iewDispSquashedInsts      2079950                       # Number of squashed instructions skipped by dispatch
system.switch_cpus.iew.iewDispStoreInsts     89199635                       # Number of dispatched store instructions
system.switch_cpus.iew.iewDispatchedInsts   1699615883                       # Number of instructions dispatched to IQ
system.switch_cpus.iew.iewExecLoadInsts     489907812                       # Number of load instructions executed
system.switch_cpus.iew.iewExecSquashedInsts     61663674                       # Number of squashed instructions skipped in execute
system.switch_cpus.iew.iewExecutedInsts    1594280627                       # Number of executed instructions
system.switch_cpus.iew.iewIQFullEvents        6008112                       # Number of times the IQ has become full, causing a stall
system.switch_cpus.iew.iewIdleCycles                0                       # Number of cycles IEW is idle
system.switch_cpus.iew.iewLSQFullEvents     209831244                       # Number of times the LSQ has become full, causing a stall
system.switch_cpus.iew.iewSquashCycles       23851247                       # Number of cycles IEW is squashing
system.switch_cpus.iew.iewUnblockCycles     218613474                       # Number of cycles IEW is unblocking
system.switch_cpus.iew.lsq.thread0.blockedLoads            0                       # Number of blocked loads due to partial load-store forwarding
system.switch_cpus.iew.lsq.thread0.cacheBlocked     19716456                       # Number of times an access to memory failed due to the cache being blocked
system.switch_cpus.iew.lsq.thread0.forwLoads     34944583                       # Number of loads that had data forwarded from stores
system.switch_cpus.iew.lsq.thread0.ignoredResponses       344372                       # Number of memory responses ignored because the instruction is squashed
system.switch_cpus.iew.lsq.thread0.invAddrLoads            0                       # Number of loads ignored due to an invalid address
system.switch_cpus.iew.lsq.thread0.invAddrSwpfs            0                       # Number of software prefetches ignored due to an invalid address
system.switch_cpus.iew.lsq.thread0.memOrderViolation        36520                       # Number of memory ordering violations
system.switch_cpus.iew.lsq.thread0.rescheduledLoads       182806                       # Number of loads that were rescheduled
system.switch_cpus.iew.lsq.thread0.squashedLoads    163647766                       # Number of loads squashed
system.switch_cpus.iew.lsq.thread0.squashedStores     47572959                       # Number of stores squashed
system.switch_cpus.iew.memOrderViolationEvents        36520                       # Number of memory order violations
system.switch_cpus.iew.predictedNotTakenIncorrect     24107126                       # Number of branches that were predicted not taken incorrectly
system.switch_cpus.iew.predictedTakenIncorrect      6787981                       # Number of branches that were predicted taken incorrectly
system.switch_cpus.iew.wb_consumers        1404955753                       # num instructions consuming a value
system.switch_cpus.iew.wb_count            1361893055                       # cumulative count of insts written-back
system.switch_cpus.iew.wb_fanout             0.673879                       # average fanout of values written-back
system.switch_cpus.iew.wb_producers         946770504                       # num instructions producing a value
system.switch_cpus.iew.wb_rate               0.855757                       # insts written-back per cycle
system.switch_cpus.iew.wb_sent             1372435897                       # cumulative count of insts sent to commit
system.switch_cpus.int_regfile_reads       2305487857                       # number of integer regfile reads
system.switch_cpus.int_regfile_writes      1111210950                       # number of integer regfile writes
system.switch_cpus.ipc                       0.314179                       # IPC: Instructions Per Cycle
system.switch_cpus.ipc_total                 0.314179                       # IPC: Total IPC of All Threads
system.switch_cpus.iq.FU_type_0::No_OpClass     11469965      0.69%      0.69% # Type of FU issued
system.switch_cpus.iq.FU_type_0::IntAlu    1069189977     64.57%     65.26% # Type of FU issued
system.switch_cpus.iq.FU_type_0::IntMult      1329815      0.08%     65.34% # Type of FU issued
system.switch_cpus.iq.FU_type_0::IntDiv       3167957      0.19%     65.53% # Type of FU issued
system.switch_cpus.iq.FU_type_0::FloatAdd            0      0.00%     65.53% # Type of FU issued
system.switch_cpus.iq.FU_type_0::FloatCmp            0      0.00%     65.53% # Type of FU issued
system.switch_cpus.iq.FU_type_0::FloatCvt            0      0.00%     65.53% # Type of FU issued
system.switch_cpus.iq.FU_type_0::FloatMult            0      0.00%     65.53% # Type of FU issued
system.switch_cpus.iq.FU_type_0::FloatMultAcc            0      0.00%     65.53% # Type of FU issued
system.switch_cpus.iq.FU_type_0::FloatDiv            0      0.00%     65.53% # Type of FU issued
system.switch_cpus.iq.FU_type_0::FloatMisc            0      0.00%     65.53% # Type of FU issued
system.switch_cpus.iq.FU_type_0::FloatSqrt            0      0.00%     65.53% # Type of FU issued
system.switch_cpus.iq.FU_type_0::SimdAdd            0      0.00%     65.53% # Type of FU issued
system.switch_cpus.iq.FU_type_0::SimdAddAcc            0      0.00%     65.53% # Type of FU issued
system.switch_cpus.iq.FU_type_0::SimdAlu            0      0.00%     65.53% # Type of FU issued
system.switch_cpus.iq.FU_type_0::SimdCmp            0      0.00%     65.53% # Type of FU issued
system.switch_cpus.iq.FU_type_0::SimdCvt            0      0.00%     65.53% # Type of FU issued
system.switch_cpus.iq.FU_type_0::SimdMisc            0      0.00%     65.53% # Type of FU issued
system.switch_cpus.iq.FU_type_0::SimdMult            0      0.00%     65.53% # Type of FU issued
system.switch_cpus.iq.FU_type_0::SimdMultAcc            0      0.00%     65.53% # Type of FU issued
system.switch_cpus.iq.FU_type_0::SimdShift            0      0.00%     65.53% # Type of FU issued
system.switch_cpus.iq.FU_type_0::SimdShiftAcc            0      0.00%     65.53% # Type of FU issued
system.switch_cpus.iq.FU_type_0::SimdDiv            0      0.00%     65.53% # Type of FU issued
system.switch_cpus.iq.FU_type_0::SimdSqrt            0      0.00%     65.53% # Type of FU issued
system.switch_cpus.iq.FU_type_0::SimdFloatAdd            0      0.00%     65.53% # Type of FU issued
system.switch_cpus.iq.FU_type_0::SimdFloatAlu            0      0.00%     65.53% # Type of FU issued
system.switch_cpus.iq.FU_type_0::SimdFloatCmp            0      0.00%     65.53% # Type of FU issued
system.switch_cpus.iq.FU_type_0::SimdFloatCvt            0      0.00%     65.53% # Type of FU issued
system.switch_cpus.iq.FU_type_0::SimdFloatDiv            0      0.00%     65.53% # Type of FU issued
system.switch_cpus.iq.FU_type_0::SimdFloatMisc            0      0.00%     65.53% # Type of FU issued
system.switch_cpus.iq.FU_type_0::SimdFloatMult            0      0.00%     65.53% # Type of FU issued
system.switch_cpus.iq.FU_type_0::SimdFloatMultAcc            0      0.00%     65.53% # Type of FU issued
system.switch_cpus.iq.FU_type_0::SimdFloatSqrt            0      0.00%     65.53% # Type of FU issued
system.switch_cpus.iq.FU_type_0::SimdReduceAdd            0      0.00%     65.53% # Type of FU issued
system.switch_cpus.iq.FU_type_0::SimdReduceAlu            0      0.00%     65.53% # Type of FU issued
system.switch_cpus.iq.FU_type_0::SimdReduceCmp            0      0.00%     65.53% # Type of FU issued
system.switch_cpus.iq.FU_type_0::SimdFloatReduceAdd            0      0.00%     65.53% # Type of FU issued
system.switch_cpus.iq.FU_type_0::SimdFloatReduceCmp            0      0.00%     65.53% # Type of FU issued
system.switch_cpus.iq.FU_type_0::SimdAes            0      0.00%     65.53% # Type of FU issued
system.switch_cpus.iq.FU_type_0::SimdAesMix            0      0.00%     65.53% # Type of FU issued
system.switch_cpus.iq.FU_type_0::SimdSha1Hash            0      0.00%     65.53% # Type of FU issued
system.switch_cpus.iq.FU_type_0::SimdSha1Hash2            0      0.00%     65.53% # Type of FU issued
system.switch_cpus.iq.FU_type_0::SimdSha256Hash            0      0.00%     65.53% # Type of FU issued
system.switch_cpus.iq.FU_type_0::SimdSha256Hash2            0      0.00%     65.53% # Type of FU issued
system.switch_cpus.iq.FU_type_0::SimdShaSigma2            0      0.00%     65.53% # Type of FU issued
system.switch_cpus.iq.FU_type_0::SimdShaSigma3            0      0.00%     65.53% # Type of FU issued
system.switch_cpus.iq.FU_type_0::SimdPredAlu            0      0.00%     65.53% # Type of FU issued
system.switch_cpus.iq.FU_type_0::MemRead    505272271     30.51%     96.04% # Type of FU issued
system.switch_cpus.iq.FU_type_0::MemWrite     65514316      3.96%    100.00% # Type of FU issued
system.switch_cpus.iq.FU_type_0::FloatMemRead            0      0.00%    100.00% # Type of FU issued
system.switch_cpus.iq.FU_type_0::FloatMemWrite            0      0.00%    100.00% # Type of FU issued
system.switch_cpus.iq.FU_type_0::IprAccess            0      0.00%    100.00% # Type of FU issued
system.switch_cpus.iq.FU_type_0::InstPrefetch            0      0.00%    100.00% # Type of FU issued
system.switch_cpus.iq.FU_type_0::total     1655944301                       # Type of FU issued
system.switch_cpus.iq.fp_alu_accesses               0                       # Number of floating point alu accesses
system.switch_cpus.iq.fp_inst_queue_reads            0                       # Number of floating instruction queue reads
system.switch_cpus.iq.fp_inst_queue_wakeup_accesses            0                       # Number of floating instruction queue wakeup accesses
system.switch_cpus.iq.fp_inst_queue_writes            0                       # Number of floating instruction queue writes
system.switch_cpus.iq.fu_busy_cnt            50272602                       # FU busy when requested
system.switch_cpus.iq.fu_busy_rate           0.030359                       # FU busy rate (busy events/executed inst)
system.switch_cpus.iq.fu_full::No_OpClass            0      0.00%      0.00% # attempts to use FU when none available
system.switch_cpus.iq.fu_full::IntAlu        11865410     23.60%     23.60% # attempts to use FU when none available
system.switch_cpus.iq.fu_full::IntMult              0      0.00%     23.60% # attempts to use FU when none available
system.switch_cpus.iq.fu_full::IntDiv               0      0.00%     23.60% # attempts to use FU when none available
system.switch_cpus.iq.fu_full::FloatAdd             0      0.00%     23.60% # attempts to use FU when none available
system.switch_cpus.iq.fu_full::FloatCmp             0      0.00%     23.60% # attempts to use FU when none available
system.switch_cpus.iq.fu_full::FloatCvt             0      0.00%     23.60% # attempts to use FU when none available
system.switch_cpus.iq.fu_full::FloatMult            0      0.00%     23.60% # attempts to use FU when none available
system.switch_cpus.iq.fu_full::FloatMultAcc            0      0.00%     23.60% # attempts to use FU when none available
system.switch_cpus.iq.fu_full::FloatDiv             0      0.00%     23.60% # attempts to use FU when none available
system.switch_cpus.iq.fu_full::FloatMisc            0      0.00%     23.60% # attempts to use FU when none available
system.switch_cpus.iq.fu_full::FloatSqrt            0      0.00%     23.60% # attempts to use FU when none available
system.switch_cpus.iq.fu_full::SimdAdd              0      0.00%     23.60% # attempts to use FU when none available
system.switch_cpus.iq.fu_full::SimdAddAcc            0      0.00%     23.60% # attempts to use FU when none available
system.switch_cpus.iq.fu_full::SimdAlu              0      0.00%     23.60% # attempts to use FU when none available
system.switch_cpus.iq.fu_full::SimdCmp              0      0.00%     23.60% # attempts to use FU when none available
system.switch_cpus.iq.fu_full::SimdCvt              0      0.00%     23.60% # attempts to use FU when none available
system.switch_cpus.iq.fu_full::SimdMisc             0      0.00%     23.60% # attempts to use FU when none available
system.switch_cpus.iq.fu_full::SimdMult             0      0.00%     23.60% # attempts to use FU when none available
system.switch_cpus.iq.fu_full::SimdMultAcc            0      0.00%     23.60% # attempts to use FU when none available
system.switch_cpus.iq.fu_full::SimdShift            0      0.00%     23.60% # attempts to use FU when none available
system.switch_cpus.iq.fu_full::SimdShiftAcc            0      0.00%     23.60% # attempts to use FU when none available
system.switch_cpus.iq.fu_full::SimdDiv              0      0.00%     23.60% # attempts to use FU when none available
system.switch_cpus.iq.fu_full::SimdSqrt             0      0.00%     23.60% # attempts to use FU when none available
system.switch_cpus.iq.fu_full::SimdFloatAdd            0      0.00%     23.60% # attempts to use FU when none available
system.switch_cpus.iq.fu_full::SimdFloatAlu            0      0.00%     23.60% # attempts to use FU when none available
system.switch_cpus.iq.fu_full::SimdFloatCmp            0      0.00%     23.60% # attempts to use FU when none available
system.switch_cpus.iq.fu_full::SimdFloatCvt            0      0.00%     23.60% # attempts to use FU when none available
system.switch_cpus.iq.fu_full::SimdFloatDiv            0      0.00%     23.60% # attempts to use FU when none available
system.switch_cpus.iq.fu_full::SimdFloatMisc            0      0.00%     23.60% # attempts to use FU when none available
system.switch_cpus.iq.fu_full::SimdFloatMult            0      0.00%     23.60% # attempts to use FU when none available
system.switch_cpus.iq.fu_full::SimdFloatMultAcc            0      0.00%     23.60% # attempts to use FU when none available
system.switch_cpus.iq.fu_full::SimdFloatSqrt            0      0.00%     23.60% # attempts to use FU when none available
system.switch_cpus.iq.fu_full::SimdReduceAdd            0      0.00%     23.60% # attempts to use FU when none available
system.switch_cpus.iq.fu_full::SimdReduceAlu            0      0.00%     23.60% # attempts to use FU when none available
system.switch_cpus.iq.fu_full::SimdReduceCmp            0      0.00%     23.60% # attempts to use FU when none available
system.switch_cpus.iq.fu_full::SimdFloatReduceAdd            0      0.00%     23.60% # attempts to use FU when none available
system.switch_cpus.iq.fu_full::SimdFloatReduceCmp            0      0.00%     23.60% # attempts to use FU when none available
system.switch_cpus.iq.fu_full::SimdAes              0      0.00%     23.60% # attempts to use FU when none available
system.switch_cpus.iq.fu_full::SimdAesMix            0      0.00%     23.60% # attempts to use FU when none available
system.switch_cpus.iq.fu_full::SimdSha1Hash            0      0.00%     23.60% # attempts to use FU when none available
system.switch_cpus.iq.fu_full::SimdSha1Hash2            0      0.00%     23.60% # attempts to use FU when none available
system.switch_cpus.iq.fu_full::SimdSha256Hash            0      0.00%     23.60% # attempts to use FU when none available
system.switch_cpus.iq.fu_full::SimdSha256Hash2            0      0.00%     23.60% # attempts to use FU when none available
system.switch_cpus.iq.fu_full::SimdShaSigma2            0      0.00%     23.60% # attempts to use FU when none available
system.switch_cpus.iq.fu_full::SimdShaSigma3            0      0.00%     23.60% # attempts to use FU when none available
system.switch_cpus.iq.fu_full::SimdPredAlu            0      0.00%     23.60% # attempts to use FU when none available
system.switch_cpus.iq.fu_full::MemRead       38289118     76.16%     99.77% # attempts to use FU when none available
system.switch_cpus.iq.fu_full::MemWrite        118074      0.23%    100.00% # attempts to use FU when none available
system.switch_cpus.iq.fu_full::FloatMemRead            0      0.00%    100.00% # attempts to use FU when none available
system.switch_cpus.iq.fu_full::FloatMemWrite            0      0.00%    100.00% # attempts to use FU when none available
system.switch_cpus.iq.fu_full::IprAccess            0      0.00%    100.00% # attempts to use FU when none available
system.switch_cpus.iq.fu_full::InstPrefetch            0      0.00%    100.00% # attempts to use FU when none available
system.switch_cpus.iq.int_alu_accesses     1694746938                       # Number of integer alu accesses
system.switch_cpus.iq.int_inst_queue_reads   4966503774                       # Number of integer instruction queue reads
system.switch_cpus.iq.int_inst_queue_wakeup_accesses   1361893055                       # Number of integer instruction queue wakeup accesses
system.switch_cpus.iq.int_inst_queue_writes   2512319753                       # Number of integer instruction queue writes
system.switch_cpus.iq.iqInstsAdded         1699615883                       # Number of instructions added to the IQ (excludes non-spec)
system.switch_cpus.iq.iqInstsIssued        1655944301                       # Number of instructions issued
system.switch_cpus.iq.iqSquashedInstsExamined    812669555                       # Number of squashed instructions iterated over during squash; mainly for profiling
system.switch_cpus.iq.iqSquashedInstsIssued     12894110                       # Number of squashed instructions issued
system.switch_cpus.iq.iqSquashedOperandsExamined   1121230468                       # Number of squashed operands that are examined and possibly removed from graph
system.switch_cpus.iq.issued_per_cycle::samples   1591448460                       # Number of insts issued each cycle
system.switch_cpus.iq.issued_per_cycle::mean     1.040527                       # Number of insts issued each cycle
system.switch_cpus.iq.issued_per_cycle::stdev     1.912075                       # Number of insts issued each cycle
system.switch_cpus.iq.issued_per_cycle::underflows            0      0.00%      0.00% # Number of insts issued each cycle
system.switch_cpus.iq.issued_per_cycle::0   1110461440     69.78%     69.78% # Number of insts issued each cycle
system.switch_cpus.iq.issued_per_cycle::1    107327991      6.74%     76.52% # Number of insts issued each cycle
system.switch_cpus.iq.issued_per_cycle::2     74631022      4.69%     81.21% # Number of insts issued each cycle
system.switch_cpus.iq.issued_per_cycle::3     68605726      4.31%     85.52% # Number of insts issued each cycle
system.switch_cpus.iq.issued_per_cycle::4     89016293      5.59%     91.11% # Number of insts issued each cycle
system.switch_cpus.iq.issued_per_cycle::5     59492142      3.74%     94.85% # Number of insts issued each cycle
system.switch_cpus.iq.issued_per_cycle::6     46788992      2.94%     97.79% # Number of insts issued each cycle
system.switch_cpus.iq.issued_per_cycle::7     21721578      1.36%     99.16% # Number of insts issued each cycle
system.switch_cpus.iq.issued_per_cycle::8     13403276      0.84%    100.00% # Number of insts issued each cycle
system.switch_cpus.iq.issued_per_cycle::overflows            0      0.00%    100.00% # Number of insts issued each cycle
system.switch_cpus.iq.issued_per_cycle::min_value            0                       # Number of insts issued each cycle
system.switch_cpus.iq.issued_per_cycle::max_value            8                       # Number of insts issued each cycle
system.switch_cpus.iq.issued_per_cycle::total   1591448460                       # Number of insts issued each cycle
system.switch_cpus.iq.rate                   1.040526                       # Inst issue rate
system.switch_cpus.iq.vec_alu_accesses              0                       # Number of vector alu accesses
system.switch_cpus.iq.vec_inst_queue_reads            0                       # Number of vector instruction queue reads
system.switch_cpus.iq.vec_inst_queue_wakeup_accesses            0                       # Number of vector instruction queue wakeup accesses
system.switch_cpus.iq.vec_inst_queue_writes            0                       # Number of vector instruction queue writes
system.switch_cpus.itb.rdAccesses                   0                       # TLB accesses on read requests
system.switch_cpus.itb.rdMisses                     0                       # TLB misses on read requests
system.switch_cpus.itb.wrAccesses           198680570                       # TLB accesses on write requests
system.switch_cpus.itb.wrMisses                   108                       # TLB misses on write requests
system.switch_cpus.memDep0.conflictingLoads     23320194                       # Number of conflicting loads.
system.switch_cpus.memDep0.conflictingStores     12525070                       # Number of conflicting stores.
system.switch_cpus.memDep0.insertedLoads    349584749                       # Number of loads inserted to the mem dependence unit.
system.switch_cpus.memDep0.insertedStores     89199635                       # Number of stores inserted to the mem dependence unit.
system.switch_cpus.misc_regfile_reads       961906415                       # number of misc regfile reads
system.switch_cpus.numCycles               1591448540                       # number of cpu cycles simulated
system.switch_cpus.numWorkItemsCompleted            0                       # number of work items this cpu completed
system.switch_cpus.numWorkItemsStarted              0                       # number of work items this cpu started
system.switch_cpus.rename.BlockCycles       788961670                       # Number of cycles rename is blocking
system.switch_cpus.rename.CommittedMaps     951901493                       # Number of HB maps that are committed
system.switch_cpus.rename.IQFullEvents       99090880                       # Number of times rename has blocked due to IQ full
system.switch_cpus.rename.IdleCycles        184794989                       # Number of cycles rename is idle
system.switch_cpus.rename.LQFullEvents      265493325                       # Number of times rename has blocked due to LQ full
system.switch_cpus.rename.ROBFullEvents      18747077                       # Number of times rename has blocked due to ROB full
system.switch_cpus.rename.RenameLookups    5079302957                       # Number of register rename lookups that rename has made
system.switch_cpus.rename.RenamedInsts     1909793488                       # Number of instructions processed by rename
system.switch_cpus.rename.RenamedOperands   2066586241                       # Number of destination operands rename has renamed
system.switch_cpus.rename.RunCycles         280494062                       # Number of cycles rename is running
system.switch_cpus.rename.SQFullEvents        2833936                       # Number of times rename has blocked due to SQ full
system.switch_cpus.rename.SquashCycles       23851247                       # Number of cycles rename is squashing
system.switch_cpus.rename.UnblockCycles     313346480                       # Number of cycles rename is unblocking
system.switch_cpus.rename.UndoneMaps       1114684570                       # Number of HB maps that are undone due to squashing
system.switch_cpus.rename.int_rename_lookups   2830043596                       # Number of integer rename lookups
system.switch_cpus.rename.serializeStallCycles            0                       # count of cycles rename stalled for serializing inst
system.switch_cpus.rename.serializingInsts            0                       # count of serializing insts renamed
system.switch_cpus.rename.skidInsts         173054498                       # count of insts added to the skid buffer
system.switch_cpus.rename.tempSerializingInsts            0                       # count of temporary serializing insts renamed
system.switch_cpus.rob.rob_reads           3110514482                       # The number of ROB reads
system.switch_cpus.rob.rob_writes          3530105246                       # The number of ROB writes
system.switch_cpus.timesIdled                       2                       # Number of times that the entire CPU went into an idle state and unscheduled itself
system.tol2bus.snoop_filter.hit_multi_requests            0                       # Number of requests hitting in the snoop filter with multiple (>1) holders of the requested data.
system.tol2bus.snoop_filter.hit_multi_snoops            0                       # Number of snoops hitting in the snoop filter with multiple (>1) holders of the requested data.
system.tol2bus.snoop_filter.hit_single_requests     30460030                       # Number of requests hitting in the snoop filter with a single holder of the requested data.
system.tol2bus.snoop_filter.hit_single_snoops        19152                       # Number of snoops hitting in the snoop filter with a single holder of the requested data.
system.tol2bus.snoop_filter.tot_requests     60920061                       # Total number of requests made to the snoop filter.
system.tol2bus.snoop_filter.tot_snoops          19152                       # Total number of snoops made to the snoop filter.
system.membus.pwrStateResidencyTicks::UNDEFINED 1873473953500                       # Cumulative time (in ticks) in various power states
system.membus.trans_dist::ReadResp           19464942                       # Transaction distribution
system.membus.trans_dist::WritebackDirty      2086288                       # Transaction distribution
system.membus.trans_dist::CleanEvict         19028962                       # Transaction distribution
system.membus.trans_dist::ReadExReq           1650308                       # Transaction distribution
system.membus.trans_dist::ReadExResp          1650308                       # Transaction distribution
system.membus.trans_dist::ReadSharedReq      19464943                       # Transaction distribution
system.membus.pkt_count_system.l2.mem_side::system.mem_ctrls.port     63345751                       # Packet count per connected master and slave (bytes)
system.membus.pkt_count_system.l2.mem_side::total     63345751                       # Packet count per connected master and slave (bytes)
system.membus.pkt_count::total               63345751                       # Packet count per connected master and slave (bytes)
system.membus.pkt_size_system.l2.mem_side::system.mem_ctrls.port   1484898432                       # Cumulative packet size per connected master and slave (bytes)
system.membus.pkt_size_system.l2.mem_side::total   1484898432                       # Cumulative packet size per connected master and slave (bytes)
system.membus.pkt_size::total              1484898432                       # Cumulative packet size per connected master and slave (bytes)
system.membus.snoops                                0                       # Total snoops (count)
system.membus.snoopTraffic                          0                       # Total snoop traffic (bytes)
system.membus.snoop_fanout::samples          21115251                       # Request fanout histogram
system.membus.snoop_fanout::mean                    0                       # Request fanout histogram
system.membus.snoop_fanout::stdev                   0                       # Request fanout histogram
system.membus.snoop_fanout::underflows              0      0.00%      0.00% # Request fanout histogram
system.membus.snoop_fanout::0                21115251    100.00%    100.00% # Request fanout histogram
system.membus.snoop_fanout::1                       0      0.00%    100.00% # Request fanout histogram
system.membus.snoop_fanout::overflows               0      0.00%    100.00% # Request fanout histogram
system.membus.snoop_fanout::min_value               0                       # Request fanout histogram
system.membus.snoop_fanout::max_value               0                       # Request fanout histogram
system.membus.snoop_fanout::total            21115251                       # Request fanout histogram
system.membus.reqLayer2.occupancy         54835838000                       # Layer occupancy (ticks)
system.membus.reqLayer2.utilization               6.9                       # Layer utilization (%)
system.membus.respLayer1.occupancy       114643857750                       # Layer occupancy (ticks)
system.membus.respLayer1.utilization             14.4                       # Layer utilization (%)
system.switch_cpus.pwrStateResidencyTicks::OFF 1873473953500                       # Cumulative time (in ticks) in various power states
system.switch_cpus.dtb.walker.pwrStateResidencyTicks::UNDEFINED 1873473953500                       # Cumulative time (in ticks) in various power states
system.switch_cpus.itb.walker.pwrStateResidencyTicks::UNDEFINED 1873473953500                       # Cumulative time (in ticks) in various power states
system.tol2bus.pwrStateResidencyTicks::UNDEFINED 1873473953500                       # Cumulative time (in ticks) in various power states
system.tol2bus.trans_dist::ReadResp          28333323                       # Transaction distribution
system.tol2bus.trans_dist::WritebackDirty      5924284                       # Transaction distribution
system.tol2bus.trans_dist::WritebackClean            9                       # Transaction distribution
system.tol2bus.trans_dist::CleanEvict        45665294                       # Transaction distribution
system.tol2bus.trans_dist::ReadExReq          2126707                       # Transaction distribution
system.tol2bus.trans_dist::ReadExResp         2126707                       # Transaction distribution
system.tol2bus.trans_dist::ReadCleanReq             9                       # Transaction distribution
system.tol2bus.trans_dist::ReadSharedReq     28333315                       # Transaction distribution
system.tol2bus.pkt_count_system.cpu.icache.mem_side::system.l2.cpu_side           27                       # Packet count per connected master and slave (bytes)
system.tol2bus.pkt_count_system.cpu.dcache.mem_side::system.l2.cpu_side     91380064                       # Packet count per connected master and slave (bytes)
system.tol2bus.pkt_count::total              91380091                       # Packet count per connected master and slave (bytes)
system.tol2bus.pkt_size_system.cpu.icache.mem_side::system.l2.cpu_side         1152                       # Cumulative packet size per connected master and slave (bytes)
system.tol2bus.pkt_size_system.cpu.dcache.mem_side::system.l2.cpu_side   2195073088                       # Cumulative packet size per connected master and slave (bytes)
system.tol2bus.pkt_size::total             2195074240                       # Cumulative packet size per connected master and slave (bytes)
system.tol2bus.snoops                        21129557                       # Total snoops (count)
system.tol2bus.snoopTraffic                 133522432                       # Total snoop traffic (bytes)
system.tol2bus.snoop_fanout::samples         51589588                       # Request fanout histogram
system.tol2bus.snoop_fanout::mean            0.000371                       # Request fanout histogram
system.tol2bus.snoop_fanout::stdev           0.019264                       # Request fanout histogram
system.tol2bus.snoop_fanout::underflows             0      0.00%      0.00% # Request fanout histogram
system.tol2bus.snoop_fanout::0               51570436     99.96%     99.96% # Request fanout histogram
system.tol2bus.snoop_fanout::1                  19152      0.04%    100.00% # Request fanout histogram
system.tol2bus.snoop_fanout::2                      0      0.00%    100.00% # Request fanout histogram
system.tol2bus.snoop_fanout::3                      0      0.00%    100.00% # Request fanout histogram
system.tol2bus.snoop_fanout::4                      0      0.00%    100.00% # Request fanout histogram
system.tol2bus.snoop_fanout::overflows              0      0.00%    100.00% # Request fanout histogram
system.tol2bus.snoop_fanout::min_value              0                       # Request fanout histogram
system.tol2bus.snoop_fanout::max_value              1                       # Request fanout histogram
system.tol2bus.snoop_fanout::total           51589588                       # Request fanout histogram
system.tol2bus.reqLayer0.occupancy        34298035500                       # Layer occupancy (ticks)
system.tol2bus.reqLayer0.utilization              4.3                       # Layer utilization (%)
system.tol2bus.respLayer1.occupancy       45690031500                       # Layer occupancy (ticks)
system.tol2bus.respLayer1.utilization             5.7                       # Layer utilization (%)
system.tol2bus.respLayer0.occupancy             13500                       # Layer occupancy (ticks)
system.tol2bus.respLayer0.utilization             0.0                       # Layer utilization (%)
system.voltage_domain.voltage                       1                       # Voltage in Volts
system.clk_domain.clock                          1000                       # Clock period in ticks
system.l2.pwrStateResidencyTicks::UNDEFINED 1873473953500                       # Cumulative time (in ticks) in various power states
system.l2.demand_hits::.switch_cpus.data      9344780                       # number of demand (read+write) hits
system.l2.demand_hits::total                  9344780                       # number of demand (read+write) hits
system.l2.overall_hits::.switch_cpus.data      9344780                       # number of overall hits
system.l2.overall_hits::total                 9344780                       # number of overall hits
system.l2.demand_misses::.switch_cpus.inst            9                       # number of demand (read+write) misses
system.l2.demand_misses::.switch_cpus.data     21115242                       # number of demand (read+write) misses
system.l2.demand_misses::total               21115251                       # number of demand (read+write) misses
system.l2.overall_misses::.switch_cpus.inst            9                       # number of overall misses
system.l2.overall_misses::.switch_cpus.data     21115242                       # number of overall misses
system.l2.overall_misses::total              21115251                       # number of overall misses
system.l2.demand_miss_latency::.switch_cpus.inst       804000                       # number of demand (read+write) miss cycles
system.l2.demand_miss_latency::.switch_cpus.data 1984549170000                       # number of demand (read+write) miss cycles
system.l2.demand_miss_latency::total     1984549974000                       # number of demand (read+write) miss cycles
system.l2.overall_miss_latency::.switch_cpus.inst       804000                       # number of overall miss cycles
system.l2.overall_miss_latency::.switch_cpus.data 1984549170000                       # number of overall miss cycles
system.l2.overall_miss_latency::total    1984549974000                       # number of overall miss cycles
system.l2.demand_accesses::.switch_cpus.inst            9                       # number of demand (read+write) accesses
system.l2.demand_accesses::.switch_cpus.data     30460022                       # number of demand (read+write) accesses
system.l2.demand_accesses::total             30460031                       # number of demand (read+write) accesses
system.l2.overall_accesses::.switch_cpus.inst            9                       # number of overall (read+write) accesses
system.l2.overall_accesses::.switch_cpus.data     30460022                       # number of overall (read+write) accesses
system.l2.overall_accesses::total            30460031                       # number of overall (read+write) accesses
system.l2.demand_miss_rate::.switch_cpus.inst            1                       # miss rate for demand accesses
system.l2.demand_miss_rate::.switch_cpus.data     0.693212                       # miss rate for demand accesses
system.l2.demand_miss_rate::total            0.693212                       # miss rate for demand accesses
system.l2.overall_miss_rate::.switch_cpus.inst            1                       # miss rate for overall accesses
system.l2.overall_miss_rate::.switch_cpus.data     0.693212                       # miss rate for overall accesses
system.l2.overall_miss_rate::total           0.693212                       # miss rate for overall accesses
system.l2.demand_avg_miss_latency::.switch_cpus.inst 89333.333333                       # average overall miss latency
system.l2.demand_avg_miss_latency::.switch_cpus.data 93986.569986                       # average overall miss latency
system.l2.demand_avg_miss_latency::total 93986.568002                       # average overall miss latency
system.l2.overall_avg_miss_latency::.switch_cpus.inst 89333.333333                       # average overall miss latency
system.l2.overall_avg_miss_latency::.switch_cpus.data 93986.569986                       # average overall miss latency
system.l2.overall_avg_miss_latency::total 93986.568002                       # average overall miss latency
system.l2.blocked_cycles::no_mshrs                  0                       # number of cycles access was blocked
system.l2.blocked_cycles::no_targets                0                       # number of cycles access was blocked
system.l2.blocked::no_mshrs                         0                       # number of cycles access was blocked
system.l2.blocked::no_targets                       0                       # number of cycles access was blocked
system.l2.avg_blocked_cycles::no_mshrs            nan                       # average number of cycles each access was blocked
system.l2.avg_blocked_cycles::no_targets          nan                       # average number of cycles each access was blocked
system.l2.writebacks::.writebacks             2086288                       # number of writebacks
system.l2.writebacks::total                   2086288                       # number of writebacks
system.l2.demand_mshr_misses::.switch_cpus.inst            9                       # number of demand (read+write) MSHR misses
system.l2.demand_mshr_misses::.switch_cpus.data     21115242                       # number of demand (read+write) MSHR misses
system.l2.demand_mshr_misses::total          21115251                       # number of demand (read+write) MSHR misses
system.l2.overall_mshr_misses::.switch_cpus.inst            9                       # number of overall MSHR misses
system.l2.overall_mshr_misses::.switch_cpus.data     21115242                       # number of overall MSHR misses
system.l2.overall_mshr_misses::total         21115251                       # number of overall MSHR misses
system.l2.demand_mshr_miss_latency::.switch_cpus.inst       714000                       # number of demand (read+write) MSHR miss cycles
system.l2.demand_mshr_miss_latency::.switch_cpus.data 1773396760000                       # number of demand (read+write) MSHR miss cycles
system.l2.demand_mshr_miss_latency::total 1773397474000                       # number of demand (read+write) MSHR miss cycles
system.l2.overall_mshr_miss_latency::.switch_cpus.inst       714000                       # number of overall MSHR miss cycles
system.l2.overall_mshr_miss_latency::.switch_cpus.data 1773396760000                       # number of overall MSHR miss cycles
system.l2.overall_mshr_miss_latency::total 1773397474000                       # number of overall MSHR miss cycles
system.l2.demand_mshr_miss_rate::.switch_cpus.inst            1                       # mshr miss rate for demand accesses
system.l2.demand_mshr_miss_rate::.switch_cpus.data     0.693212                       # mshr miss rate for demand accesses
system.l2.demand_mshr_miss_rate::total       0.693212                       # mshr miss rate for demand accesses
system.l2.overall_mshr_miss_rate::.switch_cpus.inst            1                       # mshr miss rate for overall accesses
system.l2.overall_mshr_miss_rate::.switch_cpus.data     0.693212                       # mshr miss rate for overall accesses
system.l2.overall_mshr_miss_rate::total      0.693212                       # mshr miss rate for overall accesses
system.l2.demand_avg_mshr_miss_latency::.switch_cpus.inst 79333.333333                       # average overall mshr miss latency
system.l2.demand_avg_mshr_miss_latency::.switch_cpus.data 83986.570459                       # average overall mshr miss latency
system.l2.demand_avg_mshr_miss_latency::total 83986.568476                       # average overall mshr miss latency
system.l2.overall_avg_mshr_miss_latency::.switch_cpus.inst 79333.333333                       # average overall mshr miss latency
system.l2.overall_avg_mshr_miss_latency::.switch_cpus.data 83986.570459                       # average overall mshr miss latency
system.l2.overall_avg_mshr_miss_latency::total 83986.568476                       # average overall mshr miss latency
system.l2.replacements                       21129557                       # number of replacements
system.l2.WritebackDirty_hits::.writebacks      3837996                       # number of WritebackDirty hits
system.l2.WritebackDirty_hits::total          3837996                       # number of WritebackDirty hits
system.l2.WritebackDirty_accesses::.writebacks      3837996                       # number of WritebackDirty accesses(hits+misses)
system.l2.WritebackDirty_accesses::total      3837996                       # number of WritebackDirty accesses(hits+misses)
system.l2.WritebackClean_hits::.writebacks            9                       # number of WritebackClean hits
system.l2.WritebackClean_hits::total                9                       # number of WritebackClean hits
system.l2.WritebackClean_accesses::.writebacks            9                       # number of WritebackClean accesses(hits+misses)
system.l2.WritebackClean_accesses::total            9                       # number of WritebackClean accesses(hits+misses)
system.l2.CleanEvict_mshr_misses::.writebacks         4845                       # number of CleanEvict MSHR misses
system.l2.CleanEvict_mshr_misses::total          4845                       # number of CleanEvict MSHR misses
system.l2.CleanEvict_mshr_miss_rate::.writebacks          inf                       # mshr miss rate for CleanEvict accesses
system.l2.CleanEvict_mshr_miss_rate::total          inf                       # mshr miss rate for CleanEvict accesses
system.l2.ReadExReq_hits::.switch_cpus.data       476399                       # number of ReadExReq hits
system.l2.ReadExReq_hits::total                476399                       # number of ReadExReq hits
system.l2.ReadExReq_misses::.switch_cpus.data      1650308                       # number of ReadExReq misses
system.l2.ReadExReq_misses::total             1650308                       # number of ReadExReq misses
system.l2.ReadExReq_miss_latency::.switch_cpus.data 153828585500                       # number of ReadExReq miss cycles
system.l2.ReadExReq_miss_latency::total  153828585500                       # number of ReadExReq miss cycles
system.l2.ReadExReq_accesses::.switch_cpus.data      2126707                       # number of ReadExReq accesses(hits+misses)
system.l2.ReadExReq_accesses::total           2126707                       # number of ReadExReq accesses(hits+misses)
system.l2.ReadExReq_miss_rate::.switch_cpus.data     0.775992                       # miss rate for ReadExReq accesses
system.l2.ReadExReq_miss_rate::total         0.775992                       # miss rate for ReadExReq accesses
system.l2.ReadExReq_avg_miss_latency::.switch_cpus.data 93212.046176                       # average ReadExReq miss latency
system.l2.ReadExReq_avg_miss_latency::total 93212.046176                       # average ReadExReq miss latency
system.l2.ReadExReq_mshr_misses::.switch_cpus.data      1650308                       # number of ReadExReq MSHR misses
system.l2.ReadExReq_mshr_misses::total        1650308                       # number of ReadExReq MSHR misses
system.l2.ReadExReq_mshr_miss_latency::.switch_cpus.data 137325505500                       # number of ReadExReq MSHR miss cycles
system.l2.ReadExReq_mshr_miss_latency::total 137325505500                       # number of ReadExReq MSHR miss cycles
system.l2.ReadExReq_mshr_miss_rate::.switch_cpus.data     0.775992                       # mshr miss rate for ReadExReq accesses
system.l2.ReadExReq_mshr_miss_rate::total     0.775992                       # mshr miss rate for ReadExReq accesses
system.l2.ReadExReq_avg_mshr_miss_latency::.switch_cpus.data 83212.046176                       # average ReadExReq mshr miss latency
system.l2.ReadExReq_avg_mshr_miss_latency::total 83212.046176                       # average ReadExReq mshr miss latency
system.l2.ReadCleanReq_misses::.switch_cpus.inst            9                       # number of ReadCleanReq misses
system.l2.ReadCleanReq_misses::total                9                       # number of ReadCleanReq misses
system.l2.ReadCleanReq_miss_latency::.switch_cpus.inst       804000                       # number of ReadCleanReq miss cycles
system.l2.ReadCleanReq_miss_latency::total       804000                       # number of ReadCleanReq miss cycles
system.l2.ReadCleanReq_accesses::.switch_cpus.inst            9                       # number of ReadCleanReq accesses(hits+misses)
system.l2.ReadCleanReq_accesses::total              9                       # number of ReadCleanReq accesses(hits+misses)
system.l2.ReadCleanReq_miss_rate::.switch_cpus.inst            1                       # miss rate for ReadCleanReq accesses
system.l2.ReadCleanReq_miss_rate::total             1                       # miss rate for ReadCleanReq accesses
system.l2.ReadCleanReq_avg_miss_latency::.switch_cpus.inst 89333.333333                       # average ReadCleanReq miss latency
system.l2.ReadCleanReq_avg_miss_latency::total 89333.333333                       # average ReadCleanReq miss latency
system.l2.ReadCleanReq_mshr_misses::.switch_cpus.inst            9                       # number of ReadCleanReq MSHR misses
system.l2.ReadCleanReq_mshr_misses::total            9                       # number of ReadCleanReq MSHR misses
system.l2.ReadCleanReq_mshr_miss_latency::.switch_cpus.inst       714000                       # number of ReadCleanReq MSHR miss cycles
system.l2.ReadCleanReq_mshr_miss_latency::total       714000                       # number of ReadCleanReq MSHR miss cycles
system.l2.ReadCleanReq_mshr_miss_rate::.switch_cpus.inst            1                       # mshr miss rate for ReadCleanReq accesses
system.l2.ReadCleanReq_mshr_miss_rate::total            1                       # mshr miss rate for ReadCleanReq accesses
system.l2.ReadCleanReq_avg_mshr_miss_latency::.switch_cpus.inst 79333.333333                       # average ReadCleanReq mshr miss latency
system.l2.ReadCleanReq_avg_mshr_miss_latency::total 79333.333333                       # average ReadCleanReq mshr miss latency
system.l2.ReadSharedReq_hits::.switch_cpus.data      8868381                       # number of ReadSharedReq hits
system.l2.ReadSharedReq_hits::total           8868381                       # number of ReadSharedReq hits
system.l2.ReadSharedReq_misses::.switch_cpus.data     19464934                       # number of ReadSharedReq misses
system.l2.ReadSharedReq_misses::total        19464934                       # number of ReadSharedReq misses
system.l2.ReadSharedReq_miss_latency::.switch_cpus.data 1830720584500                       # number of ReadSharedReq miss cycles
system.l2.ReadSharedReq_miss_latency::total 1830720584500                       # number of ReadSharedReq miss cycles
system.l2.ReadSharedReq_accesses::.switch_cpus.data     28333315                       # number of ReadSharedReq accesses(hits+misses)
system.l2.ReadSharedReq_accesses::total      28333315                       # number of ReadSharedReq accesses(hits+misses)
system.l2.ReadSharedReq_miss_rate::.switch_cpus.data     0.686998                       # miss rate for ReadSharedReq accesses
system.l2.ReadSharedReq_miss_rate::total     0.686998                       # miss rate for ReadSharedReq accesses
system.l2.ReadSharedReq_avg_miss_latency::.switch_cpus.data 94052.236935                       # average ReadSharedReq miss latency
system.l2.ReadSharedReq_avg_miss_latency::total 94052.236935                       # average ReadSharedReq miss latency
system.l2.ReadSharedReq_mshr_misses::.switch_cpus.data     19464934                       # number of ReadSharedReq MSHR misses
system.l2.ReadSharedReq_mshr_misses::total     19464934                       # number of ReadSharedReq MSHR misses
system.l2.ReadSharedReq_mshr_miss_latency::.switch_cpus.data 1636071254500                       # number of ReadSharedReq MSHR miss cycles
[...]
system.cpu.itb_walker_cache.pwrStateResidencyTicks::UNDEFINED 1873473953500                       # Cumulative time (in ticks) in various power states
system.cpu.itb_walker_cache.blocked_cycles::no_mshrs            0                       # number of cycles access was blocked
system.cpu.itb_walker_cache.blocked_cycles::no_targets            0                       # number of cycles access was blocked
system.cpu.itb_walker_cache.blocked::no_mshrs            0                       # number of cycles access was blocked
system.cpu.itb_walker_cache.blocked::no_targets            0                       # number of cycles access was blocked
system.cpu.itb_walker_cache.avg_blocked_cycles::no_mshrs          nan                       # average number of cycles each access was blocked
system.cpu.itb_walker_cache.avg_blocked_cycles::no_targets          nan                       # average number of cycles each access was blocked
system.cpu.itb_walker_cache.replacements            0                       # number of replacements
system.cpu.itb_walker_cache.tags.pwrStateResidencyTicks::UNDEFINED 1873473953500                       # Cumulative time (in ticks) in various power states
system.cpu.itb_walker_cache.tags.tagsinuse            0                       # Cycle average of tags in use
system.cpu.itb_walker_cache.tags.total_refs            0                       # Total number of references to valid blocks.
system.cpu.itb_walker_cache.tags.sampled_refs            0                       # Sample count of references to valid blocks.
system.cpu.itb_walker_cache.tags.avg_refs          nan                       # Average number of references to valid blocks.
system.cpu.itb_walker_cache.tags.warmup_cycle            0                       # Cycle when the warmup percentage was hit.
system.cpu.itb_walker_cache.tags.tag_accesses            0                       # Number of tag accesses
system.cpu.itb_walker_cache.tags.data_accesses            0                       # Number of data accesses
system.cpu.itb.walker.pwrStateResidencyTicks::UNDEFINED 1873473953500                       # Cumulative time (in ticks) in various power states
system.cpu.dtb_walker_cache.pwrStateResidencyTicks::UNDEFINED 1873473953500                       # Cumulative time (in ticks) in various power states
system.cpu.dtb_walker_cache.blocked_cycles::no_mshrs            0                       # number of cycles access was blocked
system.cpu.dtb_walker_cache.blocked_cycles::no_targets            0                       # number of cycles access was blocked
system.cpu.dtb_walker_cache.blocked::no_mshrs            0                       # number of cycles access was blocked
system.cpu.dtb_walker_cache.blocked::no_targets            0                       # number of cycles access was blocked
system.cpu.dtb_walker_cache.avg_blocked_cycles::no_mshrs          nan                       # average number of cycles each access was blocked
system.cpu.dtb_walker_cache.avg_blocked_cycles::no_targets          nan                       # average number of cycles each access was blocked
system.cpu.dtb_walker_cache.replacements            0                       # number of replacements
system.cpu.dtb_walker_cache.tags.pwrStateResidencyTicks::UNDEFINED 1873473953500                       # Cumulative time (in ticks) in various power states
system.cpu.dtb_walker_cache.tags.tagsinuse            0                       # Cycle average of tags in use
system.cpu.dtb_walker_cache.tags.total_refs            0                       # Total number of references to valid blocks.
system.cpu.dtb_walker_cache.tags.sampled_refs            0                       # Sample count of references to valid blocks.
system.cpu.dtb_walker_cache.tags.avg_refs          nan                       # Average number of references to valid blocks.
system.cpu.dtb_walker_cache.tags.warmup_cycle            0                       # Cycle when the warmup percentage was hit.
system.cpu.dtb_walker_cache.tags.tag_accesses            0                       # Number of tag accesses
system.cpu.dtb_walker_cache.tags.data_accesses            0                       # Number of data accesses
system.cpu.dcache.pwrStateResidencyTicks::UNDEFINED 1873473953500                       # Cumulative time (in ticks) in various power states
system.cpu.dcache.demand_hits::.cpu.data    374803345                       # number of demand (read+write) hits
system.cpu.dcache.demand_hits::.switch_cpus.data    253768547                       # number of demand (read+write) hits
system.cpu.dcache.demand_hits::total        628571892                       # number of demand (read+write) hits
system.cpu.dcache.overall_hits::.cpu.data    374803345                       # number of overall hits
system.cpu.dcache.overall_hits::.switch_cpus.data    253768547                       # number of overall hits
system.cpu.dcache.overall_hits::total       628571892                       # number of overall hits
system.cpu.dcache.demand_misses::.cpu.data     52878564                       # number of demand (read+write) misses
system.cpu.dcache.demand_misses::.switch_cpus.data     48213115                       # number of demand (read+write) misses
system.cpu.dcache.demand_misses::total      101091679                       # number of demand (read+write) misses
system.cpu.dcache.overall_misses::.cpu.data     52878564                       # number of overall misses
system.cpu.dcache.overall_misses::.switch_cpus.data     48213115                       # number of overall misses
system.cpu.dcache.overall_misses::total     101091679                       # number of overall misses
system.cpu.dcache.demand_miss_latency::.switch_cpus.data 2994222248312                       # number of demand (read+write) miss cycles
system.cpu.dcache.demand_miss_latency::total 2994222248312                       # number of demand (read+write) miss cycles
system.cpu.dcache.overall_miss_latency::.switch_cpus.data 2994222248312                       # number of overall miss cycles
system.cpu.dcache.overall_miss_latency::total 2994222248312                       # number of overall miss cycles
system.cpu.dcache.demand_accesses::.cpu.data    427681909                       # number of demand (read+write) accesses
system.cpu.dcache.demand_accesses::.switch_cpus.data    301981662                       # number of demand (read+write) accesses
system.cpu.dcache.demand_accesses::total    729663571                       # number of demand (read+write) accesses
system.cpu.dcache.overall_accesses::.cpu.data    427681909                       # number of overall (read+write) accesses
system.cpu.dcache.overall_accesses::.switch_cpus.data    301981662                       # number of overall (read+write) accesses
system.cpu.dcache.overall_accesses::total    729663571                       # number of overall (read+write) accesses
system.cpu.dcache.demand_miss_rate::.cpu.data     0.123640                       # miss rate for demand accesses
system.cpu.dcache.demand_miss_rate::.switch_cpus.data     0.159656                       # miss rate for demand accesses
system.cpu.dcache.demand_miss_rate::total     0.138546                       # miss rate for demand accesses
system.cpu.dcache.overall_miss_rate::.cpu.data     0.123640                       # miss rate for overall accesses
system.cpu.dcache.overall_miss_rate::.switch_cpus.data     0.159656                       # miss rate for overall accesses
system.cpu.dcache.overall_miss_rate::total     0.138546                       # miss rate for overall accesses
system.cpu.dcache.demand_avg_miss_latency::.switch_cpus.data 62103.895347                       # average overall miss latency
system.cpu.dcache.demand_avg_miss_latency::total 29618.879397                       # average overall miss latency
system.cpu.dcache.overall_avg_miss_latency::.switch_cpus.data 62103.895347                       # average overall miss latency
system.cpu.dcache.overall_avg_miss_latency::total 29618.879397                       # average overall miss latency
system.cpu.dcache.blocked_cycles::no_mshrs    875003892                       # number of cycles access was blocked
system.cpu.dcache.blocked_cycles::no_targets           41                       # number of cycles access was blocked
system.cpu.dcache.blocked::no_mshrs          20287272                       # number of cycles access was blocked
system.cpu.dcache.blocked::no_targets               1                       # number of cycles access was blocked
system.cpu.dcache.avg_blocked_cycles::no_mshrs    43.130683                       # average number of cycles each access was blocked
system.cpu.dcache.avg_blocked_cycles::no_targets           41                       # average number of cycles each access was blocked
system.cpu.dcache.writebacks::.writebacks      8459320                       # number of writebacks
system.cpu.dcache.writebacks::total           8459320                       # number of writebacks
system.cpu.dcache.demand_mshr_hits::.switch_cpus.data     17753093                       # number of demand (read+write) MSHR hits
system.cpu.dcache.demand_mshr_hits::total     17753093                       # number of demand (read+write) MSHR hits
system.cpu.dcache.overall_mshr_hits::.switch_cpus.data     17753093                       # number of overall MSHR hits
system.cpu.dcache.overall_mshr_hits::total     17753093                       # number of overall MSHR hits
system.cpu.dcache.demand_mshr_misses::.switch_cpus.data     30460022                       # number of demand (read+write) MSHR misses
system.cpu.dcache.demand_mshr_misses::total     30460022                       # number of demand (read+write) MSHR misses
system.cpu.dcache.overall_mshr_misses::.switch_cpus.data     30460022                       # number of overall MSHR misses
system.cpu.dcache.overall_mshr_misses::total     30460022                       # number of overall MSHR misses
system.cpu.dcache.demand_mshr_miss_latency::.switch_cpus.data 2131519489434                       # number of demand (read+write) MSHR miss cycles
system.cpu.dcache.demand_mshr_miss_latency::total 2131519489434                       # number of demand (read+write) MSHR miss cycles
system.cpu.dcache.overall_mshr_miss_latency::.switch_cpus.data 2131519489434                       # number of overall MSHR miss cycles
system.cpu.dcache.overall_mshr_miss_latency::total 2131519489434                       # number of overall MSHR miss cycles
system.cpu.dcache.demand_mshr_miss_rate::.switch_cpus.data     0.100867                       # mshr miss rate for demand accesses
system.cpu.dcache.demand_mshr_miss_rate::total     0.041745                       # mshr miss rate for demand accesses
system.cpu.dcache.overall_mshr_miss_rate::.switch_cpus.data     0.100867                       # mshr miss rate for overall accesses
system.cpu.dcache.overall_mshr_miss_rate::total     0.041745                       # mshr miss rate for overall accesses
system.cpu.dcache.demand_avg_mshr_miss_latency::.switch_cpus.data 69977.608336                       # average overall mshr miss latency
system.cpu.dcache.demand_avg_mshr_miss_latency::total 69977.608336                       # average overall mshr miss latency
system.cpu.dcache.overall_avg_mshr_miss_latency::.switch_cpus.data 69977.608336                       # average overall mshr miss latency
system.cpu.dcache.overall_avg_mshr_miss_latency::total 69977.608336                       # average overall mshr miss latency
system.cpu.dcache.replacements               83338329                       # number of replacements
system.cpu.dcache.ReadReq_hits::.cpu.data    286845033                       # number of ReadReq hits
system.cpu.dcache.ReadReq_hits::.switch_cpus.data    214280854                       # number of ReadReq hits
system.cpu.dcache.ReadReq_hits::total       501125887                       # number of ReadReq hits
system.cpu.dcache.ReadReq_misses::.cpu.data     50040931                       # number of ReadReq misses
system.cpu.dcache.ReadReq_misses::.switch_cpus.data     46074138                       # number of ReadReq misses
system.cpu.dcache.ReadReq_misses::total      96115069                       # number of ReadReq misses
system.cpu.dcache.ReadReq_miss_latency::.switch_cpus.data 2829063136000                       # number of ReadReq miss cycles
system.cpu.dcache.ReadReq_miss_latency::total 2829063136000                       # number of ReadReq miss cycles
system.cpu.dcache.ReadReq_accesses::.cpu.data    336885964                       # number of ReadReq accesses(hits+misses)
system.cpu.dcache.ReadReq_accesses::.switch_cpus.data    260354992                       # number of ReadReq accesses(hits+misses)
system.cpu.dcache.ReadReq_accesses::total    597240956                       # number of ReadReq accesses(hits+misses)
system.cpu.dcache.ReadReq_miss_rate::.cpu.data     0.148540                       # miss rate for ReadReq accesses
system.cpu.dcache.ReadReq_miss_rate::.switch_cpus.data     0.176967                       # miss rate for ReadReq accesses
system.cpu.dcache.ReadReq_miss_rate::total     0.160932                       # miss rate for ReadReq accesses
system.cpu.dcache.ReadReq_avg_miss_latency::.switch_cpus.data 61402.410524                       # average ReadReq miss latency
system.cpu.dcache.ReadReq_avg_miss_latency::total 29434.126880                       # average ReadReq miss latency
system.cpu.dcache.ReadReq_mshr_hits::.switch_cpus.data     17736320                       # number of ReadReq MSHR hits
system.cpu.dcache.ReadReq_mshr_hits::total     17736320                       # number of ReadReq MSHR hits
system.cpu.dcache.ReadReq_mshr_misses::.switch_cpus.data     28337818                       # number of ReadReq MSHR misses
system.cpu.dcache.ReadReq_mshr_misses::total     28337818                       # number of ReadReq MSHR misses
system.cpu.dcache.ReadReq_mshr_miss_latency::.switch_cpus.data 1968833011500                       # number of ReadReq MSHR miss cycles
system.cpu.dcache.ReadReq_mshr_miss_latency::total 1968833011500                       # number of ReadReq MSHR miss cycles
system.cpu.dcache.ReadReq_mshr_miss_rate::.switch_cpus.data     0.108843                       # mshr miss rate for ReadReq accesses
system.cpu.dcache.ReadReq_mshr_miss_rate::total     0.047448                       # mshr miss rate for ReadReq accesses
system.cpu.dcache.ReadReq_avg_mshr_miss_latency::.switch_cpus.data 69477.226916                       # average ReadReq mshr miss latency
system.cpu.dcache.ReadReq_avg_mshr_miss_latency::total 69477.226916                       # average ReadReq mshr miss latency
system.cpu.dcache.WriteReq_hits::.cpu.data     87958312                       # number of WriteReq hits
system.cpu.dcache.WriteReq_hits::.switch_cpus.data     39487693                       # number of WriteReq hits
system.cpu.dcache.WriteReq_hits::total      127446005                       # number of WriteReq hits
system.cpu.dcache.WriteReq_misses::.cpu.data      2837633                       # number of WriteReq misses
system.cpu.dcache.WriteReq_misses::.switch_cpus.data      2138977                       # number of WriteReq misses
system.cpu.dcache.WriteReq_misses::total      4976610                       # number of WriteReq misses
system.cpu.dcache.WriteReq_miss_latency::.switch_cpus.data 165159112312                       # number of WriteReq miss cycles
system.cpu.dcache.WriteReq_miss_latency::total 165159112312                       # number of WriteReq miss cycles
system.cpu.dcache.WriteReq_accesses::.cpu.data     90795945                       # number of WriteReq accesses(hits+misses)
system.cpu.dcache.WriteReq_accesses::.switch_cpus.data     41626670                       # number of WriteReq accesses(hits+misses)
system.cpu.dcache.WriteReq_accesses::total    132422615                       # number of WriteReq accesses(hits+misses)
system.cpu.dcache.WriteReq_miss_rate::.cpu.data     0.031253                       # miss rate for WriteReq accesses
system.cpu.dcache.WriteReq_miss_rate::.switch_cpus.data     0.051385                       # miss rate for WriteReq accesses
system.cpu.dcache.WriteReq_miss_rate::total     0.037581                       # miss rate for WriteReq accesses
system.cpu.dcache.WriteReq_avg_miss_latency::.switch_cpus.data 77214.066496                       # average WriteReq miss latency
system.cpu.dcache.WriteReq_avg_miss_latency::total 33187.071583                       # average WriteReq miss latency
system.cpu.dcache.WriteReq_mshr_hits::.switch_cpus.data        16773                       # number of WriteReq MSHR hits
system.cpu.dcache.WriteReq_mshr_hits::total        16773                       # number of WriteReq MSHR hits
system.cpu.dcache.WriteReq_mshr_misses::.switch_cpus.data      2122204                       # number of WriteReq MSHR misses
system.cpu.dcache.WriteReq_mshr_misses::total      2122204                       # number of WriteReq MSHR misses
system.cpu.dcache.WriteReq_mshr_miss_latency::.switch_cpus.data 162686477934                       # number of WriteReq MSHR miss cycles
system.cpu.dcache.WriteReq_mshr_miss_latency::total 162686477934                       # number of WriteReq MSHR miss cycles
system.cpu.dcache.WriteReq_mshr_miss_rate::.switch_cpus.data     0.050982                       # mshr miss rate for WriteReq accesses
system.cpu.dcache.WriteReq_mshr_miss_rate::total     0.016026                       # mshr miss rate for WriteReq accesses
system.cpu.dcache.WriteReq_avg_mshr_miss_latency::.switch_cpus.data 76659.208037                       # average WriteReq mshr miss latency
system.cpu.dcache.WriteReq_avg_mshr_miss_latency::total 76659.208037                       # average WriteReq mshr miss latency
system.cpu.dcache.tags.pwrStateResidencyTicks::UNDEFINED 1873473953500                       # Cumulative time (in ticks) in various power states
system.cpu.dcache.tags.tagsinuse           255.998070                       # Cycle average of tags in use
system.cpu.dcache.tags.total_refs           711904527                       # Total number of references to valid blocks.
system.cpu.dcache.tags.sampled_refs          83338329                       # Sample count of references to valid blocks.
system.cpu.dcache.tags.avg_refs              8.542342                       # Average number of references to valid blocks.
system.cpu.dcache.tags.warmup_cycle              1000                       # Cycle when the warmup percentage was hit.
system.cpu.dcache.tags.occ_blocks::.cpu.data   147.267417                       # Average occupied blocks per requestor
system.cpu.dcache.tags.occ_blocks::.switch_cpus.data   108.730653                       # Average occupied blocks per requestor
system.cpu.dcache.tags.occ_percent::.cpu.data     0.575263                       # Average percentage of cache occupancy
system.cpu.dcache.tags.occ_percent::.switch_cpus.data     0.424729                       # Average percentage of cache occupancy
system.cpu.dcache.tags.occ_percent::total     0.999992                       # Average percentage of cache occupancy
system.cpu.dcache.tags.occ_task_id_blocks::1024          256                       # Occupied blocks per task id
system.cpu.dcache.tags.age_task_id_blocks_1024::0          234                       # Occupied blocks per task id
system.cpu.dcache.tags.age_task_id_blocks_1024::1           22                       # Occupied blocks per task id
system.cpu.dcache.tags.occ_task_id_percent::1024            1                       # Percentage of cache occupancy per task id
system.cpu.dcache.tags.tag_accesses        1542665727                       # Number of tag accesses
system.cpu.dcache.tags.data_accesses       1542665727                       # Number of data accesses

---------- End Simulation Statistics   ----------
