
---------- Begin Simulation Statistics ----------
final_tick                               1591727064000                       # Number of ticks from beginning of simulation (restored from checkpoints and never reset)
host_inst_rate                                 364566                       # Simulator instruction rate (inst/s)
host_mem_usage                                4521764                       # Number of bytes of host memory used
host_op_rate                                   566003                       # Simulator op (including micro ops) rate (op/s)
host_seconds                                  4114.48                       # Real time elapsed on the host
host_tick_rate                              126909321                       # Simulator tick rate (ticks/s)
sim_freq                                 1000000000000                       # Frequency of simulated ticks
sim_insts                                  1500000001                       # Number of instructions simulated
sim_ops                                    2328807785                       # Number of ops (including micro ops) simulated
sim_seconds                                  0.522166                       # Number of seconds simulated
sim_ticks                                522166195000                       # Number of ticks simulated
system.cpu.committedInsts                           0                       # Number of instructions committed
system.cpu.committedOps                             0                       # Number of ops (including micro ops) committed
system.cpu.dtb.rdAccesses                           0                       # TLB accesses on read requests
system.cpu.dtb.rdMisses                             0                       # TLB misses on read requests
system.cpu.dtb.wrAccesses                           0                       # TLB accesses on write requests
system.cpu.dtb.wrMisses                             0                       # TLB misses on write requests
system.cpu.idle_fraction                            0                       # Percentage of idle cycles
system.cpu.itb.rdAccesses                           0                       # TLB accesses on read requests
system.cpu.itb.rdMisses                             0                       # TLB misses on read requests
system.cpu.itb.wrAccesses                           0                       # TLB accesses on write requests
system.cpu.itb.wrMisses                             0                       # TLB misses on write requests
system.cpu.not_idle_fraction                        1                       # Percentage of non-idle cycles
system.cpu.numCycles                                0                       # number of cpu cycles simulated
system.cpu.numWorkItemsCompleted                    0                       # number of work items this cpu completed
system.cpu.numWorkItemsStarted                      0                       # number of work items this cpu started
system.cpu.num_busy_cycles                          0                       # Number of busy cycles
system.cpu.num_conditional_control_insts            0                       # number of instructions that are conditional controls
system.cpu.num_fp_alu_accesses                      0                       # Number of float alu accesses
system.cpu.num_fp_insts                             0                       # number of float instructions
system.cpu.num_fp_register_reads                    0                       # number of times the floating registers were read
system.cpu.num_fp_register_writes                   0                       # number of times the floating registers were written
system.cpu.num_func_calls                           0                       # number of times a function call or return occured
system.cpu.num_idle_cycles                          0                       # Number of idle cycles
system.cpu.num_int_alu_accesses                     0                       # Number of integer alu accesses
system.cpu.num_int_insts                            0                       # number of integer instructions
system.cpu.num_int_register_reads                   0                       # number of times the integer registers were read
system.cpu.num_int_register_writes                  0                       # number of times the integer registers were written
system.cpu.num_load_insts                           0                       # Number of load instructions
system.cpu.num_mem_refs                             0                       # number of memory refs
system.cpu.num_store_insts                          0                       # Number of store instructions
system.cpu.num_vec_alu_accesses                     0                       # Number of vector alu accesses
system.cpu.num_vec_insts                            0                       # number of vector instructions
system.cpu.num_vec_register_reads                   0                       # number of times the vector registers were read
system.cpu.num_vec_register_writes                  0                       # number of times the vector registers were written
system.cpu.op_class::No_OpClass                     0                       # Class of executed instruction
system.cpu.op_class::IntAlu                         0                       # Class of executed instruction
system.cpu.op_class::IntMult                        0                       # Class of executed instruction
system.cpu.op_class::IntDiv                         0                       # Class of executed instruction
system.cpu.op_class::FloatAdd                       0                       # Class of executed instruction
system.cpu.op_class::FloatCmp                       0                       # Class of executed instruction
system.cpu.op_class::FloatCvt                       0                       # Class of executed instruction
system.cpu.op_class::FloatMult                      0                       # Class of executed instruction
system.cpu.op_class::FloatMultAcc                   0                       # Class of executed instruction
system.cpu.op_class::FloatDiv                       0                       # Class of executed instruction
system.cpu.op_class::FloatMisc                      0                       # Class of executed instruction
system.cpu.op_class::FloatSqrt                      0                       # Class of executed instruction
system.cpu.op_class::SimdAdd                        0                       # Class of executed instruction
system.cpu.op_class::SimdAddAcc                     0                       # Class of executed instruction
system.cpu.op_class::SimdAlu                        0                       # Class of executed instruction
system.cpu.op_class::SimdCmp                        0                       # Class of executed instruction
system.cpu.op_class::SimdCvt                        0                       # Class of executed instruction
system.cpu.op_class::SimdMisc                       0                       # Class of executed instruction
system.cpu.op_class::SimdMult                       0                       # Class of executed instruction
system.cpu.op_class::SimdMultAcc                    0                       # Class of executed instruction
system.cpu.op_class::SimdShift                      0                       # Class of executed instruction
system.cpu.op_class::SimdShiftAcc                   0                       # Class of executed instruction
system.cpu.op_class::SimdDiv                        0                       # Class of executed instruction
system.cpu.op_class::SimdSqrt                       0                       # Class of executed instruction
system.cpu.op_class::SimdFloatAdd                   0                       # Class of executed instruction
system.cpu.op_class::SimdFloatAlu                   0                       # Class of executed instruction
system.cpu.op_class::SimdFloatCmp                   0                       # Class of executed instruction
system.cpu.op_class::SimdFloatCvt                   0                       # Class of executed instruction
system.cpu.op_class::SimdFloatDiv                   0                       # Class of executed instruction
system.cpu.op_class::SimdFloatMisc                  0                       # Class of executed instruction
system.cpu.op_class::SimdFloatMult                  0                       # Class of executed instruction
system.cpu.op_class::SimdFloatMultAcc               0                       # Class of executed instruction
system.cpu.op_class::SimdFloatSqrt                  0                       # Class of executed instruction
system.cpu.op_class::SimdReduceAdd                  0                       # Class of executed instruction
system.cpu.op_class::SimdReduceAlu                  0                       # Class of executed instruction
system.cpu.op_class::SimdReduceCmp                  0                       # Class of executed instruction
system.cpu.op_class::SimdFloatReduceAdd             0                       # Class of executed instruction
system.cpu.op_class::SimdFloatReduceCmp             0                       # Class of executed instruction
system.cpu.op_class::SimdAes                        0                       # Class of executed instruction
system.cpu.op_class::SimdAesMix                     0                       # Class of executed instruction
system.cpu.op_class::SimdSha1Hash                   0                       # Class of executed instruction
system.cpu.op_class::SimdSha1Hash2                  0                       # Class of executed instruction
system.cpu.op_class::SimdSha256Hash                 0                       # Class of executed instruction
system.cpu.op_class::SimdSha256Hash2                0                       # Class of executed instruction
system.cpu.op_class::SimdShaSigma2                  0                       # Class of executed instruction
system.cpu.op_class::SimdShaSigma3                  0                       # Class of executed instruction
system.cpu.op_class::SimdPredAlu                    0                       # Class of executed instruction
system.cpu.op_class::MemRead                        0                       # Class of executed instruction
system.cpu.op_class::MemWrite                       0                       # Class of executed instruction
system.cpu.op_class::FloatMemRead                   0                       # Class of executed instruction
system.cpu.op_class::FloatMemWrite                  0                       # Class of executed instruction
system.cpu.op_class::IprAccess                      0                       # Class of executed instruction
system.cpu.op_class::InstPrefetch                   0                       # Class of executed instruction
system.cpu.op_class::total                          0                       # Class of executed instruction
system.cpu.workload.numSyscalls                     0                       # Number of system calls
system.membus.snoop_filter.hit_multi_requests            0                       # Number of requests hitting in the snoop filter with multiple (>1) holders of the requested data.
system.membus.snoop_filter.hit_multi_snoops            0                       # Number of snoops hitting in the snoop filter with multiple (>1) holders of the requested data.
system.membus.snoop_filter.hit_single_requests      3500648                       # Number of requests hitting in the snoop filter with a single holder of the requested data.
system.membus.snoop_filter.hit_single_snoops            0                       # Number of snoops hitting in the snoop filter with a single holder of the requested data.
system.membus.snoop_filter.tot_requests       7001291                       # Total number of requests made to the snoop filter.
system.membus.snoop_filter.tot_snoops               0                       # Total number of snoops made to the snoop filter.
system.switch_cpus.branchPred.BTBCorrect            0                       # Number of correct BTB predictions (this stat may not work properly.
system.switch_cpus.branchPred.BTBHitPct      0.000000                       # BTB Hit Percentage
system.switch_cpus.branchPred.BTBHits               0                       # Number of BTB hits
system.switch_cpus.branchPred.BTBLookups      8228666                       # Number of BTB lookups
system.switch_cpus.branchPred.RASInCorrect            0                       # Number of incorrect RAS predictions.
system.switch_cpus.branchPred.condIncorrect       360486                       # Number of conditional branches incorrect
system.switch_cpus.branchPred.condPredicted      8628296                       # Number of conditional branches predicted
system.switch_cpus.branchPred.indirectHits      2208020                       # Number of indirect target hits.
system.switch_cpus.branchPred.indirectLookups      8228666                       # Number of indirect predictor lookups.
system.switch_cpus.branchPred.indirectMisses      6020646                       # Number of indirect misses.
system.switch_cpus.branchPred.lookups         9036255                       # Number of BP lookups
system.switch_cpus.branchPred.usedRAS          199293                       # Number of times the RAS was used to get a target.
system.switch_cpus.branchPredindirectMispredicted       286476                       # Number of mispredicted indirect branches.
system.switch_cpus.cc_regfile_reads          51881575                       # number of cc regfile reads
system.switch_cpus.cc_regfile_writes         35238316                       # number of cc regfile writes
system.switch_cpus.commit.amos                      0                       # Number of atomic instructions committed
system.switch_cpus.commit.branchMispredicts       362405                       # The number of times a branch was mispredicted
system.switch_cpus.commit.branches            8833774                       # Number of branches committed
system.switch_cpus.commit.bw_lim_events      19297152                       # number cycles where commit BW limit reached
system.switch_cpus.commit.commitSquashedInsts      3768860                       # The number of squashed insts skipped by commit
system.switch_cpus.commit.committedInsts    500000001                       # Number of instructions committed
system.switch_cpus.commit.committedOps      767694187                       # Number of ops (including micro ops) committed
system.switch_cpus.commit.committed_per_cycle::samples    893608393                       # Number of insts commited each cycle
system.switch_cpus.commit.committed_per_cycle::mean     0.859095                       # Number of insts commited each cycle
system.switch_cpus.commit.committed_per_cycle::stdev     1.794128                       # Number of insts commited each cycle
system.switch_cpus.commit.committed_per_cycle::underflows            0      0.00%      0.00% # Number of insts commited each cycle
system.switch_cpus.commit.committed_per_cycle::0    639856855     71.60%     71.60% # Number of insts commited each cycle
system.switch_cpus.commit.committed_per_cycle::1     95192316     10.65%     82.26% # Number of insts commited each cycle
system.switch_cpus.commit.committed_per_cycle::2     33941424      3.80%     86.05% # Number of insts commited each cycle
system.switch_cpus.commit.committed_per_cycle::3     32068138      3.59%     89.64% # Number of insts commited each cycle
system.switch_cpus.commit.committed_per_cycle::4     36179230      4.05%     93.69% # Number of insts commited each cycle
system.switch_cpus.commit.committed_per_cycle::5     19203900      2.15%     95.84% # Number of insts commited each cycle
system.switch_cpus.commit.committed_per_cycle::6     11784674      1.32%     97.16% # Number of insts commited each cycle
system.switch_cpus.commit.committed_per_cycle::7      6084704      0.68%     97.84% # Number of insts commited each cycle
system.switch_cpus.commit.committed_per_cycle::8     19297152      2.16%    100.00% # Number of insts commited each cycle
system.switch_cpus.commit.committed_per_cycle::overflows            0      0.00%    100.00% # Number of insts commited each cycle
system.switch_cpus.commit.committed_per_cycle::min_value            0                       # Number of insts commited each cycle
system.switch_cpus.commit.committed_per_cycle::max_value            8                       # Number of insts commited each cycle
system.switch_cpus.commit.committed_per_cycle::total    893608393                       # Number of insts commited each cycle
system.switch_cpus.commit.fp_insts          698559296                       # Number of committed floating point instructions.
system.switch_cpus.commit.function_calls       198704                       # Number of function calls committed.
system.switch_cpus.commit.int_insts         237825453                       # Number of committed integer instructions.
system.switch_cpus.commit.loads             134565501                       # Number of loads committed
system.switch_cpus.commit.membars                   0                       # Number of memory barriers committed
system.switch_cpus.commit.op_class_0::No_OpClass           21      0.00%      0.00% # Class of committed instruction
system.switch_cpus.commit.op_class_0::IntAlu    235954012     30.74%     30.74% # Class of committed instruction
system.switch_cpus.commit.op_class_0::IntMult            0      0.00%     30.74% # Class of committed instruction
system.switch_cpus.commit.op_class_0::IntDiv            0      0.00%     30.74% # Class of committed instruction
system.switch_cpus.commit.op_class_0::FloatAdd     84772741     11.04%     41.78% # Class of committed instruction
system.switch_cpus.commit.op_class_0::FloatCmp            0      0.00%     41.78% # Class of committed instruction
system.switch_cpus.commit.op_class_0::FloatCvt            0      0.00%     41.78% # Class of committed instruction
system.switch_cpus.commit.op_class_0::FloatMult            0      0.00%     41.78% # Class of committed instruction
system.switch_cpus.commit.op_class_0::FloatMultAcc            0      0.00%     41.78% # Class of committed instruction
system.switch_cpus.commit.op_class_0::FloatDiv            0      0.00%     41.78% # Class of committed instruction
system.switch_cpus.commit.op_class_0::FloatMisc            0      0.00%     41.78% # Class of committed instruction
system.switch_cpus.commit.op_class_0::FloatSqrt            0      0.00%     41.78% # Class of committed instruction
system.switch_cpus.commit.op_class_0::SimdAdd            0      0.00%     41.78% # Class of committed instruction
system.switch_cpus.commit.op_class_0::SimdAddAcc            0      0.00%     41.78% # Class of committed instruction
system.switch_cpus.commit.op_class_0::SimdAlu     24802932      3.23%     45.01% # Class of committed instruction
system.switch_cpus.commit.op_class_0::SimdCmp            0      0.00%     45.01% # Class of committed instruction
system.switch_cpus.commit.op_class_0::SimdCvt            0      0.00%     45.01% # Class of committed instruction
system.switch_cpus.commit.op_class_0::SimdMisc       754186      0.10%     45.11% # Class of committed instruction
system.switch_cpus.commit.op_class_0::SimdMult            0      0.00%     45.11% # Class of committed instruction
system.switch_cpus.commit.op_class_0::SimdMultAcc            0      0.00%     45.11% # Class of committed instruction
system.switch_cpus.commit.op_class_0::SimdShift            0      0.00%     45.11% # Class of committed instruction
system.switch_cpus.commit.op_class_0::SimdShiftAcc            0      0.00%     45.11% # Class of committed instruction
system.switch_cpus.commit.op_class_0::SimdDiv            0      0.00%     45.11% # Class of committed instruction
system.switch_cpus.commit.op_class_0::SimdSqrt            0      0.00%     45.11% # Class of committed instruction
system.switch_cpus.commit.op_class_0::SimdFloatAdd    117779714     15.34%     60.45% # Class of committed instruction
system.switch_cpus.commit.op_class_0::SimdFloatAlu            0      0.00%     60.45% # Class of committed instruction
system.switch_cpus.commit.op_class_0::SimdFloatCmp            0      0.00%     60.45% # Class of committed instruction
system.switch_cpus.commit.op_class_0::SimdFloatCvt      5624045      0.73%     61.18% # Class of committed instruction
system.switch_cpus.commit.op_class_0::SimdFloatDiv      2786974      0.36%     61.54% # Class of committed instruction
system.switch_cpus.commit.op_class_0::SimdFloatMisc            0      0.00%     61.54% # Class of committed instruction
system.switch_cpus.commit.op_class_0::SimdFloatMult    120554459     15.70%     77.25% # Class of committed instruction
system.switch_cpus.commit.op_class_0::SimdFloatMultAcc            0      0.00%     77.25% # Class of committed instruction
system.switch_cpus.commit.op_class_0::SimdFloatSqrt       148336      0.02%     77.27% # Class of committed instruction
system.switch_cpus.commit.op_class_0::SimdReduceAdd            0      0.00%     77.27% # Class of committed instruction
system.switch_cpus.commit.op_class_0::SimdReduceAlu            0      0.00%     77.27% # Class of committed instruction
system.switch_cpus.commit.op_class_0::SimdReduceCmp            0      0.00%     77.27% # Class of committed instruction
system.switch_cpus.commit.op_class_0::SimdFloatReduceAdd            0      0.00%     77.27% # Class of committed instruction
system.switch_cpus.commit.op_class_0::SimdFloatReduceCmp            0      0.00%     77.27% # Class of committed instruction
system.switch_cpus.commit.op_class_0::SimdAes            0      0.00%     77.27% # Class of committed instruction
system.switch_cpus.commit.op_class_0::SimdAesMix            0      0.00%     77.27% # Class of committed instruction
system.switch_cpus.commit.op_class_0::SimdSha1Hash            0      0.00%     77.27% # Class of committed instruction
system.switch_cpus.commit.op_class_0::SimdSha1Hash2            0      0.00%     77.27% # Class of committed instruction
system.switch_cpus.commit.op_class_0::SimdSha256Hash            0      0.00%     77.27% # Class of committed instruction
system.switch_cpus.commit.op_class_0::SimdSha256Hash2            0      0.00%     77.27% # Class of committed instruction
system.switch_cpus.commit.op_class_0::SimdShaSigma2            0      0.00%     77.27% # Class of committed instruction
system.switch_cpus.commit.op_class_0::SimdShaSigma3            0      0.00%     77.27% # Class of committed instruction
system.switch_cpus.commit.op_class_0::SimdPredAlu            0      0.00%     77.27% # Class of committed instruction
system.switch_cpus.commit.op_class_0::MemRead      4983029      0.65%     77.92% # Class of committed instruction
system.switch_cpus.commit.op_class_0::MemWrite      1595594      0.21%     78.12% # Class of committed instruction
system.switch_cpus.commit.op_class_0::FloatMemRead    129582472     16.88%     95.00% # Class of committed instruction
system.switch_cpus.commit.op_class_0::FloatMemWrite     38355671      5.00%    100.00% # Class of committed instruction
system.switch_cpus.commit.op_class_0::IprAccess            0      0.00%    100.00% # Class of committed instruction
system.switch_cpus.commit.op_class_0::InstPrefetch            0      0.00%    100.00% # Class of committed instruction
system.switch_cpus.commit.op_class_0::total    767694186                       # Class of committed instruction
system.switch_cpus.commit.refs              174516766                       # Number of memory references committed
system.switch_cpus.commit.swp_count                 0                       # Number of s/w prefetches committed
system.switch_cpus.commit.vec_insts                 0                       # Number of committed Vector instructions.
system.switch_cpus.committedInsts           500000000                       # Number of Instructions Simulated
system.switch_cpus.committedOps             767694186                       # Number of Ops (including micro ops) Simulated
system.switch_cpus.cpi                       2.088665                       # CPI: Cycles Per Instruction
system.switch_cpus.cpi_total                 2.088665                       # CPI: Total CPI of All Threads
system.switch_cpus.decode.BlockedCycles      34925759                       # Number of cycles decode is blocked
system.switch_cpus.decode.DecodedInsts      772479980                       # Number of instructions handled by decode
system.switch_cpus.decode.IdleCycles        656990427                       # Number of cycles decode is idle
system.switch_cpus.decode.RunCycles         200287721                       # Number of cycles decode is running
system.switch_cpus.decode.SquashCycles         375493                       # Number of cycles decode is squashing
system.switch_cpus.decode.UnblockCycles       1691666                       # Number of cycles decode is unblocking
system.switch_cpus.dtb.rdAccesses           134904662                       # TLB accesses on read requests
system.switch_cpus.dtb.rdMisses                   922                       # TLB misses on read requests
system.switch_cpus.dtb.wrAccesses            40007932                       # TLB accesses on write requests
system.switch_cpus.dtb.wrMisses                  5740                       # TLB misses on write requests
system.switch_cpus.fetch.Branches             9036255                       # Number of branches that fetch encountered
system.switch_cpus.fetch.CacheLines          48232194                       # Number of cache lines fetched
system.switch_cpus.fetch.Cycles             130328043                       # Number of cycles fetch has run and was not squashing or blocked
system.switch_cpus.fetch.IcacheSquashes        346762                       # Number of outstanding Icache misses that were squashed
system.switch_cpus.fetch.IcacheWaitRetryStallCycles      4254063                       # Number of stall cycles due to full MSHR
system.switch_cpus.fetch.Insts              503406007                       # Number of instructions fetch has processed
system.switch_cpus.fetch.MiscStallCycles       376345                       # Number of cycles fetch has spent waiting on interrupts, or bad addresses, or out of MSHRs
system.switch_cpus.fetch.PendingTrapStallCycles        21541                       # Number of stall cycles due to pending traps
system.switch_cpus.fetch.SquashCycles          750986                       # Number of cycles fetch has spent squashing
system.switch_cpus.fetch.branchRate          0.008653                       # Number of branch fetches per cycle
system.switch_cpus.fetch.icacheStallCycles    758915721                       # Number of cycles fetch is stalled on an Icache miss
system.switch_cpus.fetch.predictedBranches      2407313                       # Number of branches that fetch has predicted taken
system.switch_cpus.fetch.rate                0.482036                       # Number of inst fetches per cycle
system.switch_cpus.fetch.rateDist::samples    894271206                       # Number of instructions fetched each cycle (Total)
system.switch_cpus.fetch.rateDist::mean      0.864889                       # Number of instructions fetched each cycle (Total)
system.switch_cpus.fetch.rateDist::stdev     2.349926                       # Number of instructions fetched each cycle (Total)
system.switch_cpus.fetch.rateDist::underflows            0      0.00%      0.00% # Number of instructions fetched each cycle (Total)
system.switch_cpus.fetch.rateDist::0        773660277     86.51%     86.51% # Number of instructions fetched each cycle (Total)
system.switch_cpus.fetch.rateDist::1          7102790      0.79%     87.31% # Number of instructions fetched each cycle (Total)
system.switch_cpus.fetch.rateDist::2          7216044      0.81%     88.11% # Number of instructions fetched each cycle (Total)
system.switch_cpus.fetch.rateDist::3          5503627      0.62%     88.73% # Number of instructions fetched each cycle (Total)
system.switch_cpus.fetch.rateDist::4          6462917      0.72%     89.45% # Number of instructions fetched each cycle (Total)
system.switch_cpus.fetch.rateDist::5          7176108      0.80%     90.25% # Number of instructions fetched each cycle (Total)
system.switch_cpus.fetch.rateDist::6          7150394      0.80%     91.05% # Number of instructions fetched each cycle (Total)
system.switch_cpus.fetch.rateDist::7          9227690      1.03%     92.09% # Number of instructions fetched each cycle (Total)
system.switch_cpus.fetch.rateDist::8         70771359      7.91%    100.00% # Number of instructions fetched each cycle (Total)
system.switch_cpus.fetch.rateDist::overflows            0      0.00%    100.00% # Number of instructions fetched each cycle (Total)
system.switch_cpus.fetch.rateDist::min_value            0                       # Number of instructions fetched each cycle (Total)
system.switch_cpus.fetch.rateDist::max_value            8                       # Number of instructions fetched each cycle (Total)
system.switch_cpus.fetch.rateDist::total    894271206                       # Number of instructions fetched each cycle (Total)
system.switch_cpus.fp_regfile_reads        1172324931                       # number of floating regfile reads
system.switch_cpus.fp_regfile_writes        654976166                       # number of floating regfile writes
system.switch_cpus.idleCycles               150061184                       # Total number of cycles that the CPU has spent unscheduled due to idling
system.switch_cpus.iew.branchMispredicts       373383                       # Number of branch mispredicts detected at execute
system.switch_cpus.iew.exec_branches          8867574                       # Number of branches executed
system.switch_cpus.iew.exec_nop                     0                       # number of nop insts executed
system.switch_cpus.iew.exec_rate             0.765743                       # Inst execution rate
system.switch_cpus.iew.exec_refs            204888104                       # number of memory reference insts executed
system.switch_cpus.iew.exec_stores           40007932                       # Number of stores executed
system.switch_cpus.iew.exec_swp                     0                       # number of swp insts executed
system.switch_cpus.iew.iewBlockCycles        30924743                       # Number of cycles IEW is blocking
system.switch_cpus.iew.iewDispLoadInsts     135046742                       # Number of dispatched load instructions
system.switch_cpus.iew.iewDispNonSpecInsts         5471                       # Number of dispatched non-speculative instructions
system.switch_cpus.iew.iewDispSquashedInsts         1701                       # Number of squashed instructions skipped by dispatch
system.switch_cpus.iew.iewDispStoreInsts     40128407                       # Number of dispatched store instructions
system.switch_cpus.iew.iewDispatchedInsts    771463061                       # Number of instructions dispatched to IQ
system.switch_cpus.iew.iewExecLoadInsts     164880172                       # Number of load instructions executed
system.switch_cpus.iew.iewExecSquashedInsts       591355                       # Number of squashed instructions skipped in execute
system.switch_cpus.iew.iewExecutedInsts     799690045                       # Number of executed instructions
system.switch_cpus.iew.iewIQFullEvents         155459                       # Number of times the IQ has become full, causing a stall
system.switch_cpus.iew.iewIdleCycles                0                       # Number of cycles IEW is idle
system.switch_cpus.iew.iewLSQFullEvents             0                       # Number of times the LSQ has become full, causing a stall
system.switch_cpus.iew.iewSquashCycles         375493                       # Number of cycles IEW is squashing
system.switch_cpus.iew.iewUnblockCycles        425607                       # Number of cycles IEW is unblocking
system.switch_cpus.iew.lsq.thread0.blockedLoads            0                       # Number of blocked loads due to partial load-store forwarding
system.switch_cpus.iew.lsq.thread0.cacheBlocked      3445842                       # Number of times an access to memory failed due to the cache being blocked
system.switch_cpus.iew.lsq.thread0.forwLoads      9770032                       # Number of loads that had data forwarded from stores
system.switch_cpus.iew.lsq.thread0.ignoredResponses         7534                       # Number of memory responses ignored because the instruction is squashed
system.switch_cpus.iew.lsq.thread0.invAddrLoads            0                       # Number of loads ignored due to an invalid address
system.switch_cpus.iew.lsq.thread0.invAddrSwpfs            0                       # Number of software prefetches ignored due to an invalid address
system.switch_cpus.iew.lsq.thread0.memOrderViolation        14214                       # Number of memory ordering violations
system.switch_cpus.iew.lsq.thread0.rescheduledLoads            0                       # Number of loads that were rescheduled
system.switch_cpus.iew.lsq.thread0.squashedLoads       481241                       # Number of loads squashed
system.switch_cpus.iew.lsq.thread0.squashedStores       177142                       # Number of stores squashed
system.switch_cpus.iew.memOrderViolationEvents        14214                       # Number of memory order violations
system.switch_cpus.iew.predictedNotTakenIncorrect       323293                       # Number of branches that were predicted not taken incorrectly
system.switch_cpus.iew.predictedTakenIncorrect        50090                       # Number of branches that were predicted taken incorrectly
system.switch_cpus.iew.wb_consumers         801130157                       # num instructions consuming a value
system.switch_cpus.iew.wb_count             769516544                       # cumulative count of insts written-back
system.switch_cpus.iew.wb_fanout             0.617914                       # average fanout of values written-back
system.switch_cpus.iew.wb_producers         495029783                       # num instructions producing a value
system.switch_cpus.iew.wb_rate               0.736850                       # insts written-back per cycle
system.switch_cpus.iew.wb_sent              769581273                       # cumulative count of insts sent to commit
system.switch_cpus.int_regfile_reads        466349184                       # number of integer regfile reads
system.switch_cpus.int_regfile_writes        60009886                       # number of integer regfile writes
system.switch_cpus.ipc                       0.478775                       # IPC: Instructions Per Cycle
system.switch_cpus.ipc_total                 0.478775                       # IPC: Total IPC of All Threads
system.switch_cpus.iq.FU_type_0::No_OpClass        82077      0.01%      0.01% # Type of FU issued
system.switch_cpus.iq.FU_type_0::IntAlu     237324270     29.66%     29.67% # Type of FU issued
system.switch_cpus.iq.FU_type_0::IntMult            0      0.00%     29.67% # Type of FU issued
system.switch_cpus.iq.FU_type_0::IntDiv             0      0.00%     29.67% # Type of FU issued
system.switch_cpus.iq.FU_type_0::FloatAdd     85022564     10.62%     40.29% # Type of FU issued
system.switch_cpus.iq.FU_type_0::FloatCmp            0      0.00%     40.29% # Type of FU issued
system.switch_cpus.iq.FU_type_0::FloatCvt            0      0.00%     40.29% # Type of FU issued
system.switch_cpus.iq.FU_type_0::FloatMult            0      0.00%     40.29% # Type of FU issued
system.switch_cpus.iq.FU_type_0::FloatMultAcc            0      0.00%     40.29% # Type of FU issued
system.switch_cpus.iq.FU_type_0::FloatDiv            0      0.00%     40.29% # Type of FU issued
system.switch_cpus.iq.FU_type_0::FloatMisc            0      0.00%     40.29% # Type of FU issued
system.switch_cpus.iq.FU_type_0::FloatSqrt            0      0.00%     40.29% # Type of FU issued
system.switch_cpus.iq.FU_type_0::SimdAdd            0      0.00%     40.29% # Type of FU issued
system.switch_cpus.iq.FU_type_0::SimdAddAcc            0      0.00%     40.29% # Type of FU issued
system.switch_cpus.iq.FU_type_0::SimdAlu     24898454      3.11%     43.40% # Type of FU issued
system.switch_cpus.iq.FU_type_0::SimdCmp            0      0.00%     43.40% # Type of FU issued
system.switch_cpus.iq.FU_type_0::SimdCvt            0      0.00%     43.40% # Type of FU issued
system.switch_cpus.iq.FU_type_0::SimdMisc       754514      0.09%     43.49% # Type of FU issued
system.switch_cpus.iq.FU_type_0::SimdMult            0      0.00%     43.49% # Type of FU issued
system.switch_cpus.iq.FU_type_0::SimdMultAcc            0      0.00%     43.49% # Type of FU issued
system.switch_cpus.iq.FU_type_0::SimdShift            0      0.00%     43.49% # Type of FU issued
system.switch_cpus.iq.FU_type_0::SimdShiftAcc            0      0.00%     43.49% # Type of FU issued
system.switch_cpus.iq.FU_type_0::SimdDiv            0      0.00%     43.49% # Type of FU issued
system.switch_cpus.iq.FU_type_0::SimdSqrt            0      0.00%     43.49% # Type of FU issued
system.switch_cpus.iq.FU_type_0::SimdFloatAdd    117986418     14.74%     58.24% # Type of FU issued
system.switch_cpus.iq.FU_type_0::SimdFloatAlu            0      0.00%     58.24% # Type of FU issued
system.switch_cpus.iq.FU_type_0::SimdFloatCmp            0      0.00%     58.24% # Type of FU issued
system.switch_cpus.iq.FU_type_0::SimdFloatCvt      5631380      0.70%     58.94% # Type of FU issued
system.switch_cpus.iq.FU_type_0::SimdFloatDiv      2786974      0.35%     59.29% # Type of FU issued
system.switch_cpus.iq.FU_type_0::SimdFloatMisc            0      0.00%     59.29% # Type of FU issued
system.switch_cpus.iq.FU_type_0::SimdFloatMult    120617196     15.07%     74.36% # Type of FU issued
system.switch_cpus.iq.FU_type_0::SimdFloatMultAcc            0      0.00%     74.36% # Type of FU issued
system.switch_cpus.iq.FU_type_0::SimdFloatSqrt       148336      0.02%     74.38% # Type of FU issued
system.switch_cpus.iq.FU_type_0::SimdReduceAdd            0      0.00%     74.38% # Type of FU issued
system.switch_cpus.iq.FU_type_0::SimdReduceAlu            0      0.00%     74.38% # Type of FU issued
system.switch_cpus.iq.FU_type_0::SimdReduceCmp            0      0.00%     74.38% # Type of FU issued
system.switch_cpus.iq.FU_type_0::SimdFloatReduceAdd            0      0.00%     74.38% # Type of FU issued
system.switch_cpus.iq.FU_type_0::SimdFloatReduceCmp            0      0.00%     74.38% # Type of FU issued
system.switch_cpus.iq.FU_type_0::SimdAes            0      0.00%     74.38% # Type of FU issued
system.switch_cpus.iq.FU_type_0::SimdAesMix            0      0.00%     74.38% # Type of FU issued
system.switch_cpus.iq.FU_type_0::SimdSha1Hash            0      0.00%     74.38% # Type of FU issued
system.switch_cpus.iq.FU_type_0::SimdSha1Hash2            0      0.00%     74.38% # Type of FU issued
system.switch_cpus.iq.FU_type_0::SimdSha256Hash            0      0.00%     74.38% # Type of FU issued
system.switch_cpus.iq.FU_type_0::SimdSha256Hash2            0      0.00%     74.38% # Type of FU issued
system.switch_cpus.iq.FU_type_0::SimdShaSigma2            0      0.00%     74.38% # Type of FU issued
system.switch_cpus.iq.FU_type_0::SimdShaSigma3            0      0.00%     74.38% # Type of FU issued
system.switch_cpus.iq.FU_type_0::SimdPredAlu            0      0.00%     74.38% # Type of FU issued
system.switch_cpus.iq.FU_type_0::MemRead      9165080      1.15%     75.53% # Type of FU issued
system.switch_cpus.iq.FU_type_0::MemWrite      1618259      0.20%     75.73% # Type of FU issued
system.switch_cpus.iq.FU_type_0::FloatMemRead    155809317     19.47%     95.20% # Type of FU issued
system.switch_cpus.iq.FU_type_0::FloatMemWrite     38436562      4.80%    100.00% # Type of FU issued
system.switch_cpus.iq.FU_type_0::IprAccess            0      0.00%    100.00% # Type of FU issued
system.switch_cpus.iq.FU_type_0::InstPrefetch            0      0.00%    100.00% # Type of FU issued
system.switch_cpus.iq.FU_type_0::total      800281401                       # Type of FU issued
system.switch_cpus.iq.fp_alu_accesses       726043554                       # Number of floating point alu accesses
system.switch_cpus.iq.fp_inst_queue_reads   1452131226                       # Number of floating instruction queue reads
system.switch_cpus.iq.fp_inst_queue_wakeup_accesses    699689350                       # Number of floating instruction queue wakeup accesses
system.switch_cpus.iq.fp_inst_queue_writes    703775912                       # Number of floating instruction queue writes
system.switch_cpus.iq.fu_busy_cnt                   0                       # FU busy when requested
system.switch_cpus.iq.fu_busy_rate                  0                       # FU busy rate (busy events/executed inst)
system.switch_cpus.iq.fu_full::No_OpClass            0                       # attempts to use FU when none available
system.switch_cpus.iq.fu_full::IntAlu               0                       # attempts to use FU when none available
system.switch_cpus.iq.fu_full::IntMult              0                       # attempts to use FU when none available
system.switch_cpus.iq.fu_full::IntDiv               0                       # attempts to use FU when none available
system.switch_cpus.iq.fu_full::FloatAdd             0                       # attempts to use FU when none available
system.switch_cpus.iq.fu_full::FloatCmp             0                       # attempts to use FU when none available
system.switch_cpus.iq.fu_full::FloatCvt             0                       # attempts to use FU when none available
system.switch_cpus.iq.fu_full::FloatMult            0                       # attempts to use FU when none available
system.switch_cpus.iq.fu_full::FloatMultAcc            0                       # attempts to use FU when none available
system.switch_cpus.iq.fu_full::FloatDiv             0                       # attempts to use FU when none available
system.switch_cpus.iq.fu_full::FloatMisc            0                       # attempts to use FU when none available
system.switch_cpus.iq.fu_full::FloatSqrt            0                       # attempts to use FU when none available
system.switch_cpus.iq.fu_full::SimdAdd              0                       # attempts to use FU when none available
system.switch_cpus.iq.fu_full::SimdAddAcc            0                       # attempts to use FU when none available
system.switch_cpus.iq.fu_full::SimdAlu              0                       # attempts to use FU when none available
system.switch_cpus.iq.fu_full::SimdCmp              0                       # attempts to use FU when none available
system.switch_cpus.iq.fu_full::SimdCvt              0                       # attempts to use FU when none available
system.switch_cpus.iq.fu_full::SimdMisc             0                       # attempts to use FU when none available
system.switch_cpus.iq.fu_full::SimdMult             0                       # attempts to use FU when none available
system.switch_cpus.iq.fu_full::SimdMultAcc            0                       # attempts to use FU when none available
system.switch_cpus.iq.fu_full::SimdShift            0                       # attempts to use FU when none available
system.switch_cpus.iq.fu_full::SimdShiftAcc            0                       # attempts to use FU when none available
system.switch_cpus.iq.fu_full::SimdDiv              0                       # attempts to use FU when none available
system.switch_cpus.iq.fu_full::SimdSqrt             0                       # attempts to use FU when none available
system.switch_cpus.iq.fu_full::SimdFloatAdd            0                       # attempts to use FU when none available
system.switch_cpus.iq.fu_full::SimdFloatAlu            0                       # attempts to use FU when none available
system.switch_cpus.iq.fu_full::SimdFloatCmp            0                       # attempts to use FU when none available
system.switch_cpus.iq.fu_full::SimdFloatCvt            0                       # attempts to use FU when none available
system.switch_cpus.iq.fu_full::SimdFloatDiv            0                       # attempts to use FU when none available
system.switch_cpus.iq.fu_full::SimdFloatMisc            0                       # attempts to use FU when none available
system.switch_cpus.iq.fu_full::SimdFloatMult            0                       # attempts to use FU when none available
system.switch_cpus.iq.fu_full::SimdFloatMultAcc            0                       # attempts to use FU when none available
system.switch_cpus.iq.fu_full::SimdFloatSqrt            0                       # attempts to use FU when none available
system.switch_cpus.iq.fu_full::SimdReduceAdd            0                       # attempts to use FU when none available
system.switch_cpus.iq.fu_full::SimdReduceAlu            0                       # attempts to use FU when none available
system.switch_cpus.iq.fu_full::SimdReduceCmp            0                       # attempts to use FU when none available
system.switch_cpus.iq.fu_full::SimdFloatReduceAdd            0                       # attempts to use FU when none available
system.switch_cpus.iq.fu_full::SimdFloatReduceCmp            0                       # attempts to use FU when none available
system.switch_cpus.iq.fu_full::SimdAes              0                       # attempts to use FU when none available
system.switch_cpus.iq.fu_full::SimdAesMix            0                       # attempts to use FU when none available
system.switch_cpus.iq.fu_full::SimdSha1Hash            0                       # attempts to use FU when none available
system.switch_cpus.iq.fu_full::SimdSha1Hash2            0                       # attempts to use FU when none available
system.switch_cpus.iq.fu_full::SimdSha256Hash            0                       # attempts to use FU when none available
system.switch_cpus.iq.fu_full::SimdSha256Hash2            0                       # attempts to use FU when none available
system.switch_cpus.iq.fu_full::SimdShaSigma2            0                       # attempts to use FU when none available
system.switch_cpus.iq.fu_full::SimdShaSigma3            0                       # attempts to use FU when none available
system.switch_cpus.iq.fu_full::SimdPredAlu            0                       # attempts to use FU when none available
system.switch_cpus.iq.fu_full::MemRead              0                       # attempts to use FU when none available
system.switch_cpus.iq.fu_full::MemWrite             0                       # attempts to use FU when none available
system.switch_cpus.iq.fu_full::FloatMemRead            0                       # attempts to use FU when none available
system.switch_cpus.iq.fu_full::FloatMemWrite            0                       # attempts to use FU when none available
system.switch_cpus.iq.fu_full::IprAccess            0                       # attempts to use FU when none available
system.switch_cpus.iq.fu_full::InstPrefetch            0                       # attempts to use FU when none available
system.switch_cpus.iq.int_alu_accesses       74155770                       # Number of integer alu accesses
system.switch_cpus.iq.int_inst_queue_reads   1042793429                       # Number of integer instruction queue reads
system.switch_cpus.iq.int_inst_queue_wakeup_accesses     69827194                       # Number of integer instruction queue wakeup accesses
system.switch_cpus.iq.int_inst_queue_writes     71469899                       # Number of integer instruction queue writes
system.switch_cpus.iq.iqInstsAdded          771457590                       # Number of instructions added to the IQ (excludes non-spec)
system.switch_cpus.iq.iqInstsIssued         800281401                       # Number of instructions issued
system.switch_cpus.iq.iqNonSpecInstsAdded         5471                       # Number of non-speculative instructions added to the IQ
system.switch_cpus.iq.iqSquashedInstsExamined      3768860                       # Number of squashed instructions iterated over during squash; mainly for profiling
system.switch_cpus.iq.iqSquashedInstsIssued        90648                       # Number of squashed instructions issued
system.switch_cpus.iq.iqSquashedNonSpecRemoved         5471                       # Number of squashed non-spec instructions that were removed
system.switch_cpus.iq.iqSquashedOperandsExamined      4516114                       # Number of squashed operands that are examined and possibly removed from graph
system.switch_cpus.iq.issued_per_cycle::samples    894271206                       # Number of insts issued each cycle
system.switch_cpus.iq.issued_per_cycle::mean     0.894898                       # Number of insts issued each cycle
system.switch_cpus.iq.issued_per_cycle::stdev     1.472059                       # Number of insts issued each cycle
system.switch_cpus.iq.issued_per_cycle::underflows            0      0.00%      0.00% # Number of insts issued each cycle
system.switch_cpus.iq.issued_per_cycle::0    610514033     68.27%     68.27% # Number of insts issued each cycle
system.switch_cpus.iq.issued_per_cycle::1     58259027      6.51%     74.78% # Number of insts issued each cycle
system.switch_cpus.iq.issued_per_cycle::2     53790316      6.01%     80.80% # Number of insts issued each cycle
system.switch_cpus.iq.issued_per_cycle::3     52389578      5.86%     86.66% # Number of insts issued each cycle
system.switch_cpus.iq.issued_per_cycle::4    119318252     13.34%    100.00% # Number of insts issued each cycle
system.switch_cpus.iq.issued_per_cycle::overflows            0      0.00%    100.00% # Number of insts issued each cycle
system.switch_cpus.iq.issued_per_cycle::min_value            0                       # Number of insts issued each cycle
system.switch_cpus.iq.issued_per_cycle::max_value            4                       # Number of insts issued each cycle
system.switch_cpus.iq.issued_per_cycle::total    894271206                       # Number of insts issued each cycle
system.switch_cpus.iq.rate                   0.766309                       # Inst issue rate
system.switch_cpus.iq.vec_alu_accesses              0                       # Number of vector alu accesses
system.switch_cpus.iq.vec_inst_queue_reads            0                       # Number of vector instruction queue reads
system.switch_cpus.iq.vec_inst_queue_wakeup_accesses            0                       # Number of vector instruction queue wakeup accesses
system.switch_cpus.iq.vec_inst_queue_writes            0                       # Number of vector instruction queue writes
system.switch_cpus.itb.rdAccesses                   0                       # TLB accesses on read requests
system.switch_cpus.itb.rdMisses                     0                       # TLB misses on read requests
system.switch_cpus.itb.wrAccesses            48234301                       # TLB accesses on write requests
system.switch_cpus.itb.wrMisses                  2121                       # TLB misses on write requests
system.switch_cpus.memDep0.conflictingLoads      7955303                       # Number of conflicting loads.
system.switch_cpus.memDep0.conflictingStores       575241                       # Number of conflicting stores.
system.switch_cpus.memDep0.insertedLoads    135046742                       # Number of loads inserted to the mem dependence unit.
system.switch_cpus.memDep0.insertedStores     40128407                       # Number of stores inserted to the mem dependence unit.
system.switch_cpus.misc_regfile_reads       238255656                       # number of misc regfile reads
system.switch_cpus.numCycles               1044332390                       # number of cpu cycles simulated
system.switch_cpus.numWorkItemsCompleted            0                       # number of work items this cpu completed
system.switch_cpus.numWorkItemsStarted              0                       # number of work items this cpu started
system.switch_cpus.rename.BlockCycles        32494565                       # Number of cycles rename is blocking
system.switch_cpus.rename.CommittedMaps     748425764                       # Number of HB maps that are committed
system.switch_cpus.rename.IQFullEvents         815161                       # Number of times rename has blocked due to IQ full
system.switch_cpus.rename.IdleCycles        657719628                       # Number of cycles rename is idle
system.switch_cpus.rename.LQFullEvents        1312506                       # Number of times rename has blocked due to LQ full
system.switch_cpus.rename.RenameLookups    1845093911                       # Number of register rename lookups that rename has made
system.switch_cpus.rename.RenamedInsts      772218536                       # Number of instructions processed by rename
system.switch_cpus.rename.RenamedOperands    752702008                       # Number of destination operands rename has renamed
system.switch_cpus.rename.RunCycles         200997599                       # Number of cycles rename is running
system.switch_cpus.rename.SquashCycles         375493                       # Number of cycles rename is squashing
system.switch_cpus.rename.UnblockCycles       2676659                       # Number of cycles rename is unblocking
system.switch_cpus.rename.UndoneMaps          4276230                       # Number of HB maps that are undone due to squashing
system.switch_cpus.rename.fp_rename_lookups   1175852567                       # Number of floating rename lookups
system.switch_cpus.rename.int_rename_lookups    407799737                       # Number of integer rename lookups
system.switch_cpus.rename.serializeStallCycles         7123                       # count of cycles rename stalled for serializing inst
system.switch_cpus.rename.serializingInsts         5515                       # count of serializing insts renamed
system.switch_cpus.rename.skidInsts           5208534                       # count of insts added to the skid buffer
system.switch_cpus.rename.tempSerializingInsts         1633                       # count of temporary serializing insts renamed
system.switch_cpus.rob.rob_reads           1645774288                       # The number of ROB reads
system.switch_cpus.rob.rob_writes          1543589251                       # The number of ROB writes
system.switch_cpus.timesIdled                14329081                       # Number of times that the entire CPU went into an idle state and unscheduled itself
system.tol2bus.snoop_filter.hit_multi_requests            0                       # Number of requests hitting in the snoop filter with multiple (>1) holders of the requested data.
system.tol2bus.snoop_filter.hit_multi_snoops            0                       # Number of snoops hitting in the snoop filter with multiple (>1) holders of the requested data.
system.tol2bus.snoop_filter.hit_single_requests     29834933                       # Number of requests hitting in the snoop filter with a single holder of the requested data.
system.tol2bus.snoop_filter.hit_single_snoops       150805                       # Number of snoops hitting in the snoop filter with a single holder of the requested data.
system.tol2bus.snoop_filter.tot_requests     56421362                       # Total number of requests made to the snoop filter.
system.tol2bus.snoop_filter.tot_snoops         150805                       # Total number of snoops made to the snoop filter.
system.membus.pwrStateResidencyTicks::UNDEFINED 1591727064000                       # Cumulative time (in ticks) in various power states
system.membus.trans_dist::ReadResp             558744                       # Transaction distribution
system.membus.trans_dist::WritebackDirty      2949898                       # Transaction distribution
system.membus.trans_dist::CleanEvict           550750                       # Transaction distribution
system.membus.trans_dist::ReadExReq           2941899                       # Transaction distribution
system.membus.trans_dist::ReadExResp          2941899                       # Transaction distribution
system.membus.trans_dist::ReadSharedReq        558744                       # Transaction distribution
system.membus.pkt_count_system.l2.mem_side::system.mem_ctrls.port     10501934                       # Packet count per connected master and slave (bytes)
system.membus.pkt_count_system.l2.mem_side::total     10501934                       # Packet count per connected master and slave (bytes)
system.membus.pkt_count::total               10501934                       # Packet count per connected master and slave (bytes)
system.membus.pkt_size_system.l2.mem_side::system.mem_ctrls.port    412834624                       # Cumulative packet size per connected master and slave (bytes)
system.membus.pkt_size_system.l2.mem_side::total    412834624                       # Cumulative packet size per connected master and slave (bytes)
system.membus.pkt_size::total               412834624                       # Cumulative packet size per connected master and slave (bytes)
system.membus.snoops                                0                       # Total snoops (count)
system.membus.snoopTraffic                          0                       # Total snoop traffic (bytes)
system.membus.snoop_fanout::samples           3500643                       # Request fanout histogram
system.membus.snoop_fanout::mean                    0                       # Request fanout histogram
system.membus.snoop_fanout::stdev                   0                       # Request fanout histogram
system.membus.snoop_fanout::underflows              0      0.00%      0.00% # Request fanout histogram
system.membus.snoop_fanout::0                 3500643    100.00%    100.00% # Request fanout histogram
system.membus.snoop_fanout::1                       0      0.00%    100.00% # Request fanout histogram
system.membus.snoop_fanout::overflows               0      0.00%    100.00% # Request fanout histogram
system.membus.snoop_fanout::min_value               0                       # Request fanout histogram
system.membus.snoop_fanout::max_value               0                       # Request fanout histogram
system.membus.snoop_fanout::total             3500643                       # Request fanout histogram
system.membus.reqLayer2.occupancy         19868019038                       # Layer occupancy (ticks)
system.membus.reqLayer2.utilization               3.8                       # Layer utilization (%)
system.membus.respLayer1.occupancy        17960718301                       # Layer occupancy (ticks)
system.membus.respLayer1.utilization              3.4                       # Layer utilization (%)
system.switch_cpus.pwrStateResidencyTicks::OFF 1591727064000                       # Cumulative time (in ticks) in various power states
system.switch_cpus.dtb.walker.pwrStateResidencyTicks::UNDEFINED 1591727064000                       # Cumulative time (in ticks) in various power states
system.switch_cpus.itb.walker.pwrStateResidencyTicks::UNDEFINED 1591727064000                       # Cumulative time (in ticks) in various power states
system.tol2bus.pwrStateResidencyTicks::UNDEFINED 1591727064000                       # Cumulative time (in ticks) in various power states
system.tol2bus.trans_dist::ReadResp          23480442                       # Transaction distribution
system.tol2bus.trans_dist::WritebackDirty      5944728                       # Transaction distribution
system.tol2bus.trans_dist::WritebackClean     22963467                       # Transaction distribution
system.tol2bus.trans_dist::CleanEvict         1171686                       # Transaction distribution
system.tol2bus.trans_dist::ReadExReq          2947988                       # Transaction distribution
system.tol2bus.trans_dist::ReadExResp         2947988                       # Transaction distribution
system.tol2bus.trans_dist::ReadCleanReq      22963468                       # Transaction distribution
system.tol2bus.trans_dist::ReadSharedReq       516975                       # Transaction distribution
system.tol2bus.pkt_count_system.cpu.icache.mem_side::system.l2.cpu_side     68890402                       # Packet count per connected master and slave (bytes)
system.tol2bus.pkt_count_system.cpu.dcache.mem_side::system.l2.cpu_side     10394889                       # Packet count per connected master and slave (bytes)
system.tol2bus.pkt_count::total              79285291                       # Packet count per connected master and slave (bytes)
system.tol2bus.pkt_size_system.cpu.icache.mem_side::system.l2.cpu_side   2939323776                       # Cumulative packet size per connected master and slave (bytes)
system.tol2bus.pkt_size_system.cpu.dcache.mem_side::system.l2.cpu_side    413426752                       # Cumulative packet size per connected master and slave (bytes)
system.tol2bus.pkt_size::total             3352750528                       # Cumulative packet size per connected master and slave (bytes)
system.tol2bus.snoops                         3651451                       # Total snoops (count)
system.tol2bus.snoopTraffic                 188793472                       # Total snoop traffic (bytes)
system.tol2bus.snoop_fanout::samples         30237880                       # Request fanout histogram
system.tol2bus.snoop_fanout::mean            0.004987                       # Request fanout histogram
system.tol2bus.snoop_fanout::stdev           0.070444                       # Request fanout histogram
system.tol2bus.snoop_fanout::underflows             0      0.00%      0.00% # Request fanout histogram
system.tol2bus.snoop_fanout::0               30087075     99.50%     99.50% # Request fanout histogram
system.tol2bus.snoop_fanout::1                 150805      0.50%    100.00% # Request fanout histogram
system.tol2bus.snoop_fanout::2                      0      0.00%    100.00% # Request fanout histogram
system.tol2bus.snoop_fanout::3                      0      0.00%    100.00% # Request fanout histogram
system.tol2bus.snoop_fanout::4                      0      0.00%    100.00% # Request fanout histogram
system.tol2bus.snoop_fanout::overflows              0      0.00%    100.00% # Request fanout histogram
system.tol2bus.snoop_fanout::min_value              0                       # Request fanout histogram
system.tol2bus.snoop_fanout::max_value              1                       # Request fanout histogram
system.tol2bus.snoop_fanout::total           30237880                       # Request fanout histogram
system.tol2bus.reqLayer0.occupancy        55947646035                       # Layer occupancy (ticks)
system.tol2bus.reqLayer0.utilization             10.7                       # Layer utilization (%)
system.tol2bus.respLayer1.occupancy        5197487913                       # Layer occupancy (ticks)
system.tol2bus.respLayer1.utilization             1.0                       # Layer utilization (%)
system.tol2bus.respLayer0.occupancy       34445222456                       # Layer occupancy (ticks)
system.tol2bus.respLayer0.utilization             6.6                       # Layer utilization (%)
system.voltage_domain.voltage                       1                       # Voltage in Volts
system.clk_domain.clock                          1000                       # Clock period in ticks
system.l2.pwrStateResidencyTicks::UNDEFINED 1591727064000                       # Cumulative time (in ticks) in various power states
system.l2.demand_hits::.switch_cpus.inst     22871458                       # number of demand (read+write) hits
system.l2.demand_hits::.switch_cpus.data        56330                       # number of demand (read+write) hits
system.l2.demand_hits::total                 22927788                       # number of demand (read+write) hits
system.l2.overall_hits::.switch_cpus.inst     22871458                       # number of overall hits
system.l2.overall_hits::.switch_cpus.data        56330                       # number of overall hits
system.l2.overall_hits::total                22927788                       # number of overall hits
system.l2.demand_misses::.switch_cpus.inst        92010                       # number of demand (read+write) misses
system.l2.demand_misses::.switch_cpus.data      3408633                       # number of demand (read+write) misses
system.l2.demand_misses::total                3500643                       # number of demand (read+write) misses
system.l2.overall_misses::.switch_cpus.inst        92010                       # number of overall misses
system.l2.overall_misses::.switch_cpus.data      3408633                       # number of overall misses
system.l2.overall_misses::total               3500643                       # number of overall misses
system.l2.demand_miss_latency::.switch_cpus.inst   8280038026                       # number of demand (read+write) miss cycles
system.l2.demand_miss_latency::.switch_cpus.data 180968626936                       # number of demand (read+write) miss cycles
system.l2.demand_miss_latency::total     189248664962                       # number of demand (read+write) miss cycles
system.l2.overall_miss_latency::.switch_cpus.inst   8280038026                       # number of overall miss cycles
system.l2.overall_miss_latency::.switch_cpus.data 180968626936                       # number of overall miss cycles
system.l2.overall_miss_latency::total    189248664962                       # number of overall miss cycles
system.l2.demand_accesses::.switch_cpus.inst     22963468                       # number of demand (read+write) accesses
system.l2.demand_accesses::.switch_cpus.data      3464963                       # number of demand (read+write) accesses
system.l2.demand_accesses::total             26428431                       # number of demand (read+write) accesses
system.l2.overall_accesses::.switch_cpus.inst     22963468                       # number of overall (read+write) accesses
system.l2.overall_accesses::.switch_cpus.data      3464963                       # number of overall (read+write) accesses
system.l2.overall_accesses::total            26428431                       # number of overall (read+write) accesses
system.l2.demand_miss_rate::.switch_cpus.inst     0.004007                       # miss rate for demand accesses
system.l2.demand_miss_rate::.switch_cpus.data     0.983743                       # miss rate for demand accesses
system.l2.demand_miss_rate::total            0.132457                       # miss rate for demand accesses
system.l2.overall_miss_rate::.switch_cpus.inst     0.004007                       # miss rate for overall accesses
system.l2.overall_miss_rate::.switch_cpus.data     0.983743                       # miss rate for overall accesses
system.l2.overall_miss_rate::total           0.132457                       # miss rate for overall accesses
system.l2.demand_avg_miss_latency::.switch_cpus.inst 89990.631736                       # average overall miss latency
system.l2.demand_avg_miss_latency::.switch_cpus.data 53091.261786                       # average overall miss latency
system.l2.demand_avg_miss_latency::total 54061.115333                       # average overall miss latency
system.l2.overall_avg_miss_latency::.switch_cpus.inst 89990.631736                       # average overall miss latency
system.l2.overall_avg_miss_latency::.switch_cpus.data 53091.261786                       # average overall miss latency
system.l2.overall_avg_miss_latency::total 54061.115333                       # average overall miss latency
system.l2.blocked_cycles::no_mshrs          308446508                       # number of cycles access was blocked
system.l2.blocked_cycles::no_targets                0                       # number of cycles access was blocked
system.l2.blocked::no_mshrs                   3500643                       # number of cycles access was blocked
system.l2.blocked::no_targets                       0                       # number of cycles access was blocked
system.l2.avg_blocked_cycles::no_mshrs      88.111386                       # average number of cycles each access was blocked
system.l2.avg_blocked_cycles::no_targets          nan                       # average number of cycles each access was blocked
system.l2.writebacks::.writebacks             2949898                       # number of writebacks
system.l2.writebacks::total                   2949898                       # number of writebacks
system.l2.demand_mshr_misses::.switch_cpus.inst        92010                       # number of demand (read+write) MSHR misses
system.l2.demand_mshr_misses::.switch_cpus.data      3408633                       # number of demand (read+write) MSHR misses
system.l2.demand_mshr_misses::total           3500643                       # number of demand (read+write) MSHR misses
system.l2.overall_mshr_misses::.switch_cpus.inst        92010                       # number of overall MSHR misses
system.l2.overall_mshr_misses::.switch_cpus.data      3408633                       # number of overall MSHR misses
system.l2.overall_mshr_misses::total          3500643                       # number of overall MSHR misses
system.l2.demand_mshr_miss_latency::.switch_cpus.inst   7359938026                       # number of demand (read+write) MSHR miss cycles
system.l2.demand_mshr_miss_latency::.switch_cpus.data 146882296936                       # number of demand (read+write) MSHR miss cycles
system.l2.demand_mshr_miss_latency::total 154242234962                       # number of demand (read+write) MSHR miss cycles
system.l2.overall_mshr_miss_latency::.switch_cpus.inst   7359938026                       # number of overall MSHR miss cycles
system.l2.overall_mshr_miss_latency::.switch_cpus.data 146882296936                       # number of overall MSHR miss cycles
system.l2.overall_mshr_miss_latency::total 154242234962                       # number of overall MSHR miss cycles
system.l2.demand_mshr_miss_rate::.switch_cpus.inst     0.004007                       # mshr miss rate for demand accesses
system.l2.demand_mshr_miss_rate::.switch_cpus.data     0.983743                       # mshr miss rate for demand accesses
system.l2.demand_mshr_miss_rate::total       0.132457                       # mshr miss rate for demand accesses
system.l2.overall_mshr_miss_rate::.switch_cpus.inst     0.004007                       # mshr miss rate for overall accesses
system.l2.overall_mshr_miss_rate::.switch_cpus.data     0.983743                       # mshr miss rate for overall accesses
system.l2.overall_mshr_miss_rate::total      0.132457                       # mshr miss rate for overall accesses
system.l2.demand_avg_mshr_miss_latency::.switch_cpus.inst 79990.631736                       # average overall mshr miss latency
system.l2.demand_avg_mshr_miss_latency::.switch_cpus.data 43091.261786                       # average overall mshr miss latency
system.l2.demand_avg_mshr_miss_latency::total 44061.115333                       # average overall mshr miss latency
system.l2.overall_avg_mshr_miss_latency::.switch_cpus.inst 79990.631736                       # average overall mshr miss latency
system.l2.overall_avg_mshr_miss_latency::.switch_cpus.data 43091.261786                       # average overall mshr miss latency
system.l2.overall_avg_mshr_miss_latency::total 44061.115333                       # average overall mshr miss latency
system.l2.replacements                        3651451                       # number of replacements
system.l2.WritebackDirty_hits::.writebacks      2994830                       # number of WritebackDirty hits
system.l2.WritebackDirty_hits::total          2994830                       # number of WritebackDirty hits
system.l2.WritebackDirty_accesses::.writebacks      2994830                       # number of WritebackDirty accesses(hits+misses)
system.l2.WritebackDirty_accesses::total      2994830                       # number of WritebackDirty accesses(hits+misses)
system.l2.WritebackClean_hits::.writebacks     22963467                       # number of WritebackClean hits
system.l2.WritebackClean_hits::total         22963467                       # number of WritebackClean hits
system.l2.WritebackClean_accesses::.writebacks     22963467                       # number of WritebackClean accesses(hits+misses)
system.l2.WritebackClean_accesses::total     22963467                       # number of WritebackClean accesses(hits+misses)
system.l2.CleanEvict_mshr_misses::.writebacks            2                       # number of CleanEvict MSHR misses
system.l2.CleanEvict_mshr_misses::total             2                       # number of CleanEvict MSHR misses
system.l2.CleanEvict_mshr_miss_rate::.writebacks          inf                       # mshr miss rate for CleanEvict accesses
system.l2.CleanEvict_mshr_miss_rate::total          inf                       # mshr miss rate for CleanEvict accesses
system.l2.ReadExReq_hits::.switch_cpus.data         6089                       # number of ReadExReq hits
system.l2.ReadExReq_hits::total                  6089                       # number of ReadExReq hits
system.l2.ReadExReq_misses::.switch_cpus.data      2941899                       # number of ReadExReq misses
system.l2.ReadExReq_misses::total             2941899                       # number of ReadExReq misses
system.l2.ReadExReq_miss_latency::.switch_cpus.data 141596631249                       # number of ReadExReq miss cycles
system.l2.ReadExReq_miss_latency::total  141596631249                       # number of ReadExReq miss cycles
system.l2.ReadExReq_accesses::.switch_cpus.data      2947988                       # number of ReadExReq accesses(hits+misses)
system.l2.ReadExReq_accesses::total           2947988                       # number of ReadExReq accesses(hits+misses)
system.l2.ReadExReq_miss_rate::.switch_cpus.data     0.997935                       # miss rate for ReadExReq accesses
system.l2.ReadExReq_miss_rate::total         0.997935                       # miss rate for ReadExReq accesses
system.l2.ReadExReq_avg_miss_latency::.switch_cpus.data 48131.030756                       # average ReadExReq miss latency
system.l2.ReadExReq_avg_miss_latency::total 48131.030756                       # average ReadExReq miss latency
system.l2.ReadExReq_mshr_misses::.switch_cpus.data      2941899                       # number of ReadExReq MSHR misses
system.l2.ReadExReq_mshr_misses::total        2941899                       # number of ReadExReq MSHR misses
system.l2.ReadExReq_mshr_miss_latency::.switch_cpus.data 112177641249                       # number of ReadExReq MSHR miss cycles
system.l2.ReadExReq_mshr_miss_latency::total 112177641249                       # number of ReadExReq MSHR miss cycles
system.l2.ReadExReq_mshr_miss_rate::.switch_cpus.data     0.997935                       # mshr miss rate for ReadExReq accesses
system.l2.ReadExReq_mshr_miss_rate::total     0.997935                       # mshr miss rate for ReadExReq accesses
system.l2.ReadExReq_avg_mshr_miss_latency::.switch_cpus.data 38131.030756                       # average ReadExReq mshr miss latency
system.l2.ReadExReq_avg_mshr_miss_latency::total 38131.030756                       # average ReadExReq mshr miss latency
system.l2.ReadCleanReq_hits::.switch_cpus.inst     22871458                       # number of ReadCleanReq hits
system.l2.ReadCleanReq_hits::total           22871458                       # number of ReadCleanReq hits
system.l2.ReadCleanReq_misses::.switch_cpus.inst        92010                       # number of ReadCleanReq misses
system.l2.ReadCleanReq_misses::total            92010                       # number of ReadCleanReq misses
system.l2.ReadCleanReq_miss_latency::.switch_cpus.inst   8280038026                       # number of ReadCleanReq miss cycles
system.l2.ReadCleanReq_miss_latency::total   8280038026                       # number of ReadCleanReq miss cycles
system.l2.ReadCleanReq_accesses::.switch_cpus.inst     22963468                       # number of ReadCleanReq accesses(hits+misses)
system.l2.ReadCleanReq_accesses::total       22963468                       # number of ReadCleanReq accesses(hits+misses)
system.l2.ReadCleanReq_miss_rate::.switch_cpus.inst     0.004007                       # miss rate for ReadCleanReq accesses
system.l2.ReadCleanReq_miss_rate::total      0.004007                       # miss rate for ReadCleanReq accesses
system.l2.ReadCleanReq_avg_miss_latency::.switch_cpus.inst 89990.631736                       # average ReadCleanReq miss latency
system.l2.ReadCleanReq_avg_miss_latency::total 89990.631736                       # average ReadCleanReq miss latency
system.l2.ReadCleanReq_mshr_misses::.switch_cpus.inst        92010                       # number of ReadCleanReq MSHR misses
system.l2.ReadCleanReq_mshr_misses::total        92010                       # number of ReadCleanReq MSHR misses
system.l2.ReadCleanReq_mshr_miss_latency::.switch_cpus.inst   7359938026                       # number of ReadCleanReq MSHR miss cycles
system.l2.ReadCleanReq_mshr_miss_latency::total   7359938026                       # number of ReadCleanReq MSHR miss cycles
system.l2.ReadCleanReq_mshr_miss_rate::.switch_cpus.inst     0.004007                       # mshr miss rate for ReadCleanReq accesses
system.l2.ReadCleanReq_mshr_miss_rate::total     0.004007                       # mshr miss rate for ReadCleanReq accesses
system.l2.ReadCleanReq_avg_mshr_miss_latency::.switch_cpus.inst 79990.631736                       # average ReadCleanReq mshr miss latency
system.l2.ReadCleanReq_avg_mshr_miss_latency::total 79990.631736                       # average ReadCleanReq mshr miss latency
system.l2.ReadSharedReq_hits::.switch_cpus.data        50241                       # number of ReadSharedReq hits
system.l2.ReadSharedReq_hits::total             50241                       # number of ReadSharedReq hits
system.l2.ReadSharedReq_misses::.switch_cpus.data       466734                       # number of ReadSharedReq misses
system.l2.ReadSharedReq_misses::total          466734                       # number of ReadSharedReq misses
system.l2.ReadSharedReq_miss_latency::.switch_cpus.data  39371995687                       # number of ReadSharedReq miss cycles
system.l2.ReadSharedReq_miss_latency::total  39371995687                       # number of ReadSharedReq miss cycles
system.l2.ReadSharedReq_accesses::.switch_cpus.data       516975                       # number of ReadSharedReq accesses(hits+misses)
system.l2.ReadSharedReq_accesses::total        516975                       # number of ReadSharedReq accesses(hits+misses)
system.l2.ReadSharedReq_miss_rate::.switch_cpus.data     0.902817                       # miss rate for ReadSharedReq accesses
system.l2.ReadSharedReq_miss_rate::total     0.902817                       # miss rate for ReadSharedReq accesses
system.l2.ReadSharedReq_avg_miss_latency::.switch_cpus.data 84356.390764                       # average ReadSharedReq miss latency
system.l2.ReadSharedReq_avg_miss_latency::total 84356.390764                       # average ReadSharedReq miss latency
system.l2.ReadSharedReq_mshr_misses::.switch_cpus.data       466734                       # number of ReadSharedReq MSHR misses
[...]
system.cpu.itb_walker_cache.blocked_cycles::no_mshrs            0                       # number of cycles access was blocked
system.cpu.itb_walker_cache.blocked_cycles::no_targets            0                       # number of cycles access was blocked
system.cpu.itb_walker_cache.blocked::no_mshrs            0                       # number of cycles access was blocked
system.cpu.itb_walker_cache.blocked::no_targets            0                       # number of cycles access was blocked
system.cpu.itb_walker_cache.avg_blocked_cycles::no_mshrs          nan                       # average number of cycles each access was blocked
system.cpu.itb_walker_cache.avg_blocked_cycles::no_targets          nan                       # average number of cycles each access was blocked
system.cpu.itb_walker_cache.replacements            0                       # number of replacements
system.cpu.itb_walker_cache.tags.pwrStateResidencyTicks::UNDEFINED 1591727064000                       # Cumulative time (in ticks) in various power states
system.cpu.itb_walker_cache.tags.tagsinuse            0                       # Cycle average of tags in use
system.cpu.itb_walker_cache.tags.total_refs            0                       # Total number of references to valid blocks.
system.cpu.itb_walker_cache.tags.sampled_refs            0                       # Sample count of references to valid blocks.
system.cpu.itb_walker_cache.tags.avg_refs          nan                       # Average number of references to valid blocks.
system.cpu.itb_walker_cache.tags.warmup_cycle            0                       # Cycle when the warmup percentage was hit.
system.cpu.itb_walker_cache.tags.tag_accesses            0                       # Number of tag accesses
system.cpu.itb_walker_cache.tags.data_accesses            0                       # Number of data accesses
system.cpu.itb.walker.pwrStateResidencyTicks::UNDEFINED 1591727064000                       # Cumulative time (in ticks) in various power states
system.cpu.dtb_walker_cache.pwrStateResidencyTicks::UNDEFINED 1591727064000                       # Cumulative time (in ticks) in various power states
system.cpu.dtb_walker_cache.blocked_cycles::no_mshrs            0                       # number of cycles access was blocked
system.cpu.dtb_walker_cache.blocked_cycles::no_targets            0                       # number of cycles access was blocked
system.cpu.dtb_walker_cache.blocked::no_mshrs            0                       # number of cycles access was blocked
system.cpu.dtb_walker_cache.blocked::no_targets            0                       # number of cycles access was blocked
system.cpu.dtb_walker_cache.avg_blocked_cycles::no_mshrs          nan                       # average number of cycles each access was blocked
system.cpu.dtb_walker_cache.avg_blocked_cycles::no_targets          nan                       # average number of cycles each access was blocked
system.cpu.dtb_walker_cache.replacements            0                       # number of replacements
system.cpu.dtb_walker_cache.tags.pwrStateResidencyTicks::UNDEFINED 1591727064000                       # Cumulative time (in ticks) in various power states
system.cpu.dtb_walker_cache.tags.tagsinuse            0                       # Cycle average of tags in use
system.cpu.dtb_walker_cache.tags.total_refs            0                       # Total number of references to valid blocks.
system.cpu.dtb_walker_cache.tags.sampled_refs            0                       # Sample count of references to valid blocks.
system.cpu.dtb_walker_cache.tags.avg_refs          nan                       # Average number of references to valid blocks.
system.cpu.dtb_walker_cache.tags.warmup_cycle            0                       # Cycle when the warmup percentage was hit.
system.cpu.dtb_walker_cache.tags.tag_accesses            0                       # Number of tag accesses
system.cpu.dtb_walker_cache.tags.data_accesses            0                       # Number of data accesses
system.cpu.dcache.pwrStateResidencyTicks::UNDEFINED 1591727064000                       # Cumulative time (in ticks) in various power states
system.cpu.dcache.demand_hits::.cpu.data    347848790                       # number of demand (read+write) hits
system.cpu.dcache.demand_hits::.switch_cpus.data    161617350                       # number of demand (read+write) hits
system.cpu.dcache.demand_hits::total        509466140                       # number of demand (read+write) hits
system.cpu.dcache.overall_hits::.cpu.data    347853499                       # number of overall hits
system.cpu.dcache.overall_hits::.switch_cpus.data    161617350                       # number of overall hits
system.cpu.dcache.overall_hits::total       509470849                       # number of overall hits
system.cpu.dcache.demand_misses::.cpu.data     10341406                       # number of demand (read+write) misses
system.cpu.dcache.demand_misses::.switch_cpus.data      3464963                       # number of demand (read+write) misses
system.cpu.dcache.demand_misses::total       13806369                       # number of demand (read+write) misses
system.cpu.dcache.overall_misses::.cpu.data     10342059                       # number of overall misses
system.cpu.dcache.overall_misses::.switch_cpus.data      3464963                       # number of overall misses
system.cpu.dcache.overall_misses::total      13807022                       # number of overall misses
system.cpu.dcache.demand_miss_latency::.switch_cpus.data 194220263062                       # number of demand (read+write) miss cycles
system.cpu.dcache.demand_miss_latency::total 194220263062                       # number of demand (read+write) miss cycles
system.cpu.dcache.overall_miss_latency::.switch_cpus.data 194220263062                       # number of overall miss cycles
system.cpu.dcache.overall_miss_latency::total 194220263062                       # number of overall miss cycles
system.cpu.dcache.demand_accesses::.cpu.data    358190196                       # number of demand (read+write) accesses
system.cpu.dcache.demand_accesses::.switch_cpus.data    165082313                       # number of demand (read+write) accesses
system.cpu.dcache.demand_accesses::total    523272509                       # number of demand (read+write) accesses
system.cpu.dcache.overall_accesses::.cpu.data    358195558                       # number of overall (read+write) accesses
system.cpu.dcache.overall_accesses::.switch_cpus.data    165082313                       # number of overall (read+write) accesses
system.cpu.dcache.overall_accesses::total    523277871                       # number of overall (read+write) accesses
system.cpu.dcache.demand_miss_rate::.cpu.data     0.028871                       # miss rate for demand accesses
system.cpu.dcache.demand_miss_rate::.switch_cpus.data     0.020989                       # miss rate for demand accesses
system.cpu.dcache.demand_miss_rate::total     0.026385                       # miss rate for demand accesses
system.cpu.dcache.overall_miss_rate::.cpu.data     0.028873                       # miss rate for overall accesses
system.cpu.dcache.overall_miss_rate::.switch_cpus.data     0.020989                       # miss rate for overall accesses
system.cpu.dcache.overall_miss_rate::total     0.026386                       # miss rate for overall accesses
system.cpu.dcache.demand_avg_miss_latency::.switch_cpus.data 56052.622513                       # average overall miss latency
system.cpu.dcache.demand_avg_miss_latency::total 14067.439677                       # average overall miss latency
system.cpu.dcache.overall_avg_miss_latency::.switch_cpus.data 56052.622513                       # average overall miss latency
system.cpu.dcache.overall_avg_miss_latency::total 14066.774360                       # average overall miss latency
system.cpu.dcache.blocked_cycles::no_mshrs    381458766                       # number of cycles access was blocked
system.cpu.dcache.blocked_cycles::no_targets            0                       # number of cycles access was blocked
system.cpu.dcache.blocked::no_mshrs           3464963                       # number of cycles access was blocked
system.cpu.dcache.blocked::no_targets               0                       # number of cycles access was blocked
system.cpu.dcache.avg_blocked_cycles::no_mshrs   110.090286                       # average number of cycles each access was blocked
system.cpu.dcache.avg_blocked_cycles::no_targets          nan                       # average number of cycles each access was blocked
system.cpu.dcache.writebacks::.writebacks     12278564                       # number of writebacks
system.cpu.dcache.writebacks::total          12278564                       # number of writebacks
system.cpu.dcache.demand_mshr_misses::.switch_cpus.data      3464963                       # number of demand (read+write) MSHR misses
system.cpu.dcache.demand_mshr_misses::total      3464963                       # number of demand (read+write) MSHR misses
system.cpu.dcache.overall_mshr_misses::.switch_cpus.data      3464963                       # number of overall MSHR misses
system.cpu.dcache.overall_mshr_misses::total      3464963                       # number of overall MSHR misses
system.cpu.dcache.demand_mshr_miss_latency::.switch_cpus.data 190755300062                       # number of demand (read+write) MSHR miss cycles
system.cpu.dcache.demand_mshr_miss_latency::total 190755300062                       # number of demand (read+write) MSHR miss cycles
system.cpu.dcache.overall_mshr_miss_latency::.switch_cpus.data 190755300062                       # number of overall MSHR miss cycles
system.cpu.dcache.overall_mshr_miss_latency::total 190755300062                       # number of overall MSHR miss cycles
system.cpu.dcache.demand_mshr_miss_rate::.switch_cpus.data     0.020989                       # mshr miss rate for demand accesses
system.cpu.dcache.demand_mshr_miss_rate::total     0.006622                       # mshr miss rate for demand accesses
system.cpu.dcache.overall_mshr_miss_rate::.switch_cpus.data     0.020989                       # mshr miss rate for overall accesses
system.cpu.dcache.overall_mshr_miss_rate::total     0.006622                       # mshr miss rate for overall accesses
system.cpu.dcache.demand_avg_mshr_miss_latency::.switch_cpus.data 55052.622513                       # average overall mshr miss latency
system.cpu.dcache.demand_avg_mshr_miss_latency::total 55052.622513                       # average overall mshr miss latency
system.cpu.dcache.overall_avg_mshr_miss_latency::.switch_cpus.data 55052.622513                       # average overall mshr miss latency
system.cpu.dcache.overall_avg_mshr_miss_latency::total 55052.622513                       # average overall mshr miss latency
system.cpu.dcache.replacements               13806766                       # number of replacements
system.cpu.dcache.ReadReq_hits::.cpu.data    272510042                       # number of ReadReq hits
system.cpu.dcache.ReadReq_hits::.switch_cpus.data    124614073                       # number of ReadReq hits
system.cpu.dcache.ReadReq_hits::total       397124115                       # number of ReadReq hits
system.cpu.dcache.ReadReq_misses::.cpu.data      2588984                       # number of ReadReq misses
system.cpu.dcache.ReadReq_misses::.switch_cpus.data       516975                       # number of ReadReq misses
system.cpu.dcache.ReadReq_misses::total       3105959                       # number of ReadReq misses
system.cpu.dcache.ReadReq_miss_latency::.switch_cpus.data  42307308000                       # number of ReadReq miss cycles
system.cpu.dcache.ReadReq_miss_latency::total  42307308000                       # number of ReadReq miss cycles
system.cpu.dcache.ReadReq_accesses::.cpu.data    275099026                       # number of ReadReq accesses(hits+misses)
system.cpu.dcache.ReadReq_accesses::.switch_cpus.data    125131048                       # number of ReadReq accesses(hits+misses)
system.cpu.dcache.ReadReq_accesses::total    400230074                       # number of ReadReq accesses(hits+misses)
system.cpu.dcache.ReadReq_miss_rate::.cpu.data     0.009411                       # miss rate for ReadReq accesses
system.cpu.dcache.ReadReq_miss_rate::.switch_cpus.data     0.004131                       # miss rate for ReadReq accesses
system.cpu.dcache.ReadReq_miss_rate::total     0.007760                       # miss rate for ReadReq accesses
system.cpu.dcache.ReadReq_avg_miss_latency::.switch_cpus.data 81836.274481                       # average ReadReq miss latency
system.cpu.dcache.ReadReq_avg_miss_latency::total 13621.334989                       # average ReadReq miss latency
system.cpu.dcache.ReadReq_mshr_misses::.switch_cpus.data       516975                       # number of ReadReq MSHR misses
system.cpu.dcache.ReadReq_mshr_misses::total       516975                       # number of ReadReq MSHR misses
system.cpu.dcache.ReadReq_mshr_miss_latency::.switch_cpus.data  41790333000                       # number of ReadReq MSHR miss cycles
system.cpu.dcache.ReadReq_mshr_miss_latency::total  41790333000                       # number of ReadReq MSHR miss cycles
system.cpu.dcache.ReadReq_mshr_miss_rate::.switch_cpus.data     0.004131                       # mshr miss rate for ReadReq accesses
system.cpu.dcache.ReadReq_mshr_miss_rate::total     0.001292                       # mshr miss rate for ReadReq accesses
system.cpu.dcache.ReadReq_avg_mshr_miss_latency::.switch_cpus.data 80836.274481                       # average ReadReq mshr miss latency
system.cpu.dcache.ReadReq_avg_mshr_miss_latency::total 80836.274481                       # average ReadReq mshr miss latency
system.cpu.dcache.WriteReq_hits::.cpu.data     75338748                       # number of WriteReq hits
system.cpu.dcache.WriteReq_hits::.switch_cpus.data     37003277                       # number of WriteReq hits
system.cpu.dcache.WriteReq_hits::total      112342025                       # number of WriteReq hits
system.cpu.dcache.WriteReq_misses::.cpu.data      7752422                       # number of WriteReq misses
system.cpu.dcache.WriteReq_misses::.switch_cpus.data      2947988                       # number of WriteReq misses
system.cpu.dcache.WriteReq_misses::total     10700410                       # number of WriteReq misses
system.cpu.dcache.WriteReq_miss_latency::.switch_cpus.data 151912955062                       # number of WriteReq miss cycles
system.cpu.dcache.WriteReq_miss_latency::total 151912955062                       # number of WriteReq miss cycles
system.cpu.dcache.WriteReq_accesses::.cpu.data     83091170                       # number of WriteReq accesses(hits+misses)
system.cpu.dcache.WriteReq_accesses::.switch_cpus.data     39951265                       # number of WriteReq accesses(hits+misses)
system.cpu.dcache.WriteReq_accesses::total    123042435                       # number of WriteReq accesses(hits+misses)
system.cpu.dcache.WriteReq_miss_rate::.cpu.data     0.093300                       # miss rate for WriteReq accesses
system.cpu.dcache.WriteReq_miss_rate::.switch_cpus.data     0.073790                       # miss rate for WriteReq accesses
system.cpu.dcache.WriteReq_miss_rate::total     0.086965                       # miss rate for WriteReq accesses
system.cpu.dcache.WriteReq_avg_miss_latency::.switch_cpus.data 51531.062902                       # average WriteReq miss latency
system.cpu.dcache.WriteReq_avg_miss_latency::total 14196.928441                       # average WriteReq miss latency
system.cpu.dcache.WriteReq_mshr_misses::.switch_cpus.data      2947988                       # number of WriteReq MSHR misses
system.cpu.dcache.WriteReq_mshr_misses::total      2947988                       # number of WriteReq MSHR misses
system.cpu.dcache.WriteReq_mshr_miss_latency::.switch_cpus.data 148964967062                       # number of WriteReq MSHR miss cycles
system.cpu.dcache.WriteReq_mshr_miss_latency::total 148964967062                       # number of WriteReq MSHR miss cycles
system.cpu.dcache.WriteReq_mshr_miss_rate::.switch_cpus.data     0.073790                       # mshr miss rate for WriteReq accesses
system.cpu.dcache.WriteReq_mshr_miss_rate::total     0.023959                       # mshr miss rate for WriteReq accesses
system.cpu.dcache.WriteReq_avg_mshr_miss_latency::.switch_cpus.data 50531.062902                       # average WriteReq mshr miss latency
system.cpu.dcache.WriteReq_avg_mshr_miss_latency::total 50531.062902                       # average WriteReq mshr miss latency
system.cpu.dcache.SoftPFReq_hits::.cpu.data         4709                       # number of SoftPFReq hits
system.cpu.dcache.SoftPFReq_hits::total          4709                       # number of SoftPFReq hits
system.cpu.dcache.SoftPFReq_misses::.cpu.data          653                       # number of SoftPFReq misses
system.cpu.dcache.SoftPFReq_misses::total          653                       # number of SoftPFReq misses
system.cpu.dcache.SoftPFReq_accesses::.cpu.data         5362                       # number of SoftPFReq accesses(hits+misses)
system.cpu.dcache.SoftPFReq_accesses::total         5362                       # number of SoftPFReq accesses(hits+misses)
system.cpu.dcache.SoftPFReq_miss_rate::.cpu.data     0.121783                       # miss rate for SoftPFReq accesses
system.cpu.dcache.SoftPFReq_miss_rate::total     0.121783                       # miss rate for SoftPFReq accesses
system.cpu.dcache.tags.pwrStateResidencyTicks::UNDEFINED 1591727064000                       # Cumulative time (in ticks) in various power states
system.cpu.dcache.tags.tagsinuse           255.998206                       # Cycle average of tags in use
system.cpu.dcache.tags.total_refs           522919913                       # Total number of references to valid blocks.
system.cpu.dcache.tags.sampled_refs          13806766                       # Sample count of references to valid blocks.
system.cpu.dcache.tags.avg_refs             37.874178                       # Average number of references to valid blocks.
system.cpu.dcache.tags.warmup_cycle              1000                       # Cycle when the warmup percentage was hit.
system.cpu.dcache.tags.occ_blocks::.cpu.data   172.305116                       # Average occupied blocks per requestor
system.cpu.dcache.tags.occ_blocks::.switch_cpus.data    83.693091                       # Average occupied blocks per requestor
system.cpu.dcache.tags.occ_percent::.cpu.data     0.673067                       # Average percentage of cache occupancy
system.cpu.dcache.tags.occ_percent::.switch_cpus.data     0.326926                       # Average percentage of cache occupancy
system.cpu.dcache.tags.occ_percent::total     0.999993                       # Average percentage of cache occupancy
system.cpu.dcache.tags.occ_task_id_blocks::1024          256                       # Occupied blocks per task id
system.cpu.dcache.tags.age_task_id_blocks_1024::0            2                       # Occupied blocks per task id
system.cpu.dcache.tags.age_task_id_blocks_1024::1            6                       # Occupied blocks per task id
system.cpu.dcache.tags.age_task_id_blocks_1024::2           64                       # Occupied blocks per task id
system.cpu.dcache.tags.age_task_id_blocks_1024::3          184                       # Occupied blocks per task id
system.cpu.dcache.tags.occ_task_id_percent::1024            1                       # Percentage of cache occupancy per task id
system.cpu.dcache.tags.tag_accesses        1060362764                       # Number of tag accesses
system.cpu.dcache.tags.data_accesses       1060362764                       # Number of data accesses

---------- End Simulation Statistics   ----------
