
---------- Begin Simulation Statistics ----------
final_tick                               2254743670000                       # Number of ticks from beginning of simulation (restored from checkpoints and never reset)
host_inst_rate                                 213019                       # Simulator instruction rate (inst/s)
host_mem_usage                                4390640                       # Number of bytes of host memory used
host_op_rate                                   310077                       # Simulator op (including micro ops) rate (op/s)
host_seconds                                  7041.63                       # Real time elapsed on the host
host_tick_rate                              182265705                       # Simulator tick rate (ticks/s)
sim_freq                                 1000000000000                       # Frequency of simulated ticks
sim_insts                                  1500000001                       # Number of instructions simulated
sim_ops                                    2183444510                       # Number of ops (including micro ops) simulated
sim_seconds                                  1.283447                       # Number of seconds simulated
sim_ticks                                1283447419500                       # Number of ticks simulated
system.cpu.committedInsts                           0                       # Number of instructions committed
system.cpu.committedOps                             0                       # Number of ops (including micro ops) committed
system.cpu.dtb.rdAccesses                           0                       # TLB accesses on read requests
system.cpu.dtb.rdMisses                             0                       # TLB misses on read requests
system.cpu.dtb.wrAccesses                           0                       # TLB accesses on write requests
system.cpu.dtb.wrMisses                             0                       # TLB misses on write requests
system.cpu.idle_fraction                            0                       # Percentage of idle cycles
system.cpu.itb.rdAccesses                           0                       # TLB accesses on read requests
system.cpu.itb.rdMisses                             0                       # TLB misses on read requests
system.cpu.itb.wrAccesses                           0                       # TLB accesses on write requests
system.cpu.itb.wrMisses                             0                       # TLB misses on write requests
system.cpu.not_idle_fraction                        1                       # Percentage of non-idle cycles
system.cpu.numCycles                                0                       # number of cpu cycles simulated
system.cpu.numWorkItemsCompleted                    0                       # number of work items this cpu completed
system.cpu.numWorkItemsStarted                      0                       # number of work items this cpu started
system.cpu.num_busy_cycles                          0                       # Number of busy cycles
system.cpu.num_conditional_control_insts            0                       # number of instructions that are conditional controls
system.cpu.num_fp_alu_accesses                      0                       # Number of float alu accesses
system.cpu.num_fp_insts                             0                       # number of float instructions
system.cpu.num_fp_register_reads                    0                       # number of times the floating registers were read
system.cpu.num_fp_register_writes                   0                       # number of times the floating registers were written
system.cpu.num_func_calls                           0                       # number of times a function call or return occured
system.cpu.num_idle_cycles                          0                       # Number of idle cycles
system.cpu.num_int_alu_accesses                     0                       # Number of integer alu accesses
system.cpu.num_int_insts                            0                       # number of integer instructions
system.cpu.num_int_register_reads                   0                       # number of times the integer registers were read
system.cpu.num_int_register_writes                  0                       # number of times the integer registers were written
system.cpu.num_load_insts                           0                       # Number of load instructions
system.cpu.num_mem_refs                             0                       # number of memory refs
system.cpu.num_store_insts                          0                       # Number of store instructions
system.cpu.num_vec_alu_accesses                     0                       # Number of vector alu accesses
system.cpu.num_vec_insts                            0                       # number of vector instructions
system.cpu.num_vec_register_reads                   0                       # number of times the vector registers were read
system.cpu.num_vec_register_writes                  0                       # number of times the vector registers were written
system.cpu.op_class::No_OpClass                     0                       # Class of executed instruction
system.cpu.op_class::IntAlu                         0                       # Class of executed instruction
system.cpu.op_class::IntMult                        0                       # Class of executed instruction
system.cpu.op_class::IntDiv                         0                       # Class of executed instruction
system.cpu.op_class::FloatAdd                       0                       # Class of executed instruction
system.cpu.op_class::FloatCmp                       0                       # Class of executed instruction
system.cpu.op_class::FloatCvt                       0                       # Class of executed instruction
system.cpu.op_class::FloatMult                      0                       # Class of executed instruction
system.cpu.op_class::FloatMultAcc                   0                       # Class of executed instruction
system.cpu.op_class::FloatDiv                       0                       # Class of executed instruction
system.cpu.op_class::FloatMisc                      0                       # Class of executed instruction
system.cpu.op_class::FloatSqrt                      0                       # Class of executed instruction
system.cpu.op_class::SimdAdd                        0                       # Class of executed instruction
system.cpu.op_class::SimdAddAcc                     0                       # Class of executed instruction
system.cpu.op_class::SimdAlu                        0                       # Class of executed instruction
system.cpu.op_class::SimdCmp                        0                       # Class of executed instruction
system.cpu.op_class::SimdCvt                        0                       # Class of executed instruction
system.cpu.op_class::SimdMisc                       0                       # Class of executed instruction
system.cpu.op_class::SimdMult                       0                       # Class of executed instruction
system.cpu.op_class::SimdMultAcc                    0                       # Class of executed instruction
system.cpu.op_class::SimdShift                      0                       # Class of executed instruction
system.cpu.op_class::SimdShiftAcc                   0                       # Class of executed instruction
system.cpu.op_class::SimdDiv                        0                       # Class of executed instruction
system.cpu.op_class::SimdSqrt                       0                       # Class of executed instruction
system.cpu.op_class::SimdFloatAdd                   0                       # Class of executed instruction
system.cpu.op_class::SimdFloatAlu                   0                       # Class of executed instruction
system.cpu.op_class::SimdFloatCmp                   0                       # Class of executed instruction
system.cpu.op_class::SimdFloatCvt                   0                       # Class of executed instruction
system.cpu.op_class::SimdFloatDiv                   0                       # Class of executed instruction
system.cpu.op_class::SimdFloatMisc                  0                       # Class of executed instruction
system.cpu.op_class::SimdFloatMult                  0                       # Class of executed instruction
system.cpu.op_class::SimdFloatMultAcc               0                       # Class of executed instruction
system.cpu.op_class::SimdFloatSqrt                  0                       # Class of executed instruction
system.cpu.op_class::SimdReduceAdd                  0                       # Class of executed instruction
system.cpu.op_class::SimdReduceAlu                  0                       # Class of executed instruction
system.cpu.op_class::SimdReduceCmp                  0                       # Class of executed instruction
system.cpu.op_class::SimdFloatReduceAdd             0                       # Class of executed instruction
system.cpu.op_class::SimdFloatReduceCmp             0                       # Class of executed instruction
system.cpu.op_class::SimdAes                        0                       # Class of executed instruction
system.cpu.op_class::SimdAesMix                     0                       # Class of executed instruction
system.cpu.op_class::SimdSha1Hash                   0                       # Class of executed instruction
system.cpu.op_class::SimdSha1Hash2                  0                       # Class of executed instruction
system.cpu.op_class::SimdSha256Hash                 0                       # Class of executed instruction
system.cpu.op_class::SimdSha256Hash2                0                       # Class of executed instruction
system.cpu.op_class::SimdShaSigma2                  0                       # Class of executed instruction
system.cpu.op_class::SimdShaSigma3                  0                       # Class of executed instruction
system.cpu.op_class::SimdPredAlu                    0                       # Class of executed instruction
system.cpu.op_class::MemRead                        0                       # Class of executed instruction
system.cpu.op_class::MemWrite                       0                       # Class of executed instruction
system.cpu.op_class::FloatMemRead                   0                       # Class of executed instruction
system.cpu.op_class::FloatMemWrite                  0                       # Class of executed instruction
system.cpu.op_class::IprAccess                      0                       # Class of executed instruction
system.cpu.op_class::InstPrefetch                   0                       # Class of executed instruction
system.cpu.op_class::total                          0                       # Class of executed instruction
system.cpu.workload.numSyscalls                     0                       # Number of system calls
system.membus.snoop_filter.hit_multi_requests            0                       # Number of requests hitting in the snoop filter with multiple (>1) holders of the requested data.
system.membus.snoop_filter.hit_multi_snoops            0                       # Number of snoops hitting in the snoop filter with multiple (>1) holders of the requested data.
system.membus.snoop_filter.hit_single_requests     13414876                       # Number of requests hitting in the snoop filter with a single holder of the requested data.
system.membus.snoop_filter.hit_single_snoops            0                       # Number of snoops hitting in the snoop filter with a single holder of the requested data.
system.membus.snoop_filter.tot_requests      26829752                       # Total number of requests made to the snoop filter.
system.membus.snoop_filter.tot_snoops               0                       # Total number of snoops made to the snoop filter.
system.switch_cpus.branchPred.BTBCorrect            0                       # Number of correct BTB predictions (this stat may not work properly.
system.switch_cpus.branchPred.BTBHitPct      0.000000                       # BTB Hit Percentage
system.switch_cpus.branchPred.BTBHits               0                       # Number of BTB hits
system.switch_cpus.branchPred.BTBLookups      1703591                       # Number of BTB lookups
system.switch_cpus.branchPred.RASInCorrect            1                       # Number of incorrect RAS predictions.
system.switch_cpus.branchPred.condIncorrect        15662                       # Number of conditional branches incorrect
system.switch_cpus.branchPred.condPredicted      3689851                       # Number of conditional branches predicted
system.switch_cpus.branchPred.indirectHits      1319734                       # Number of indirect target hits.
system.switch_cpus.branchPred.indirectLookups      1703591                       # Number of indirect predictor lookups.
system.switch_cpus.branchPred.indirectMisses       383857                       # Number of indirect misses.
system.switch_cpus.branchPred.lookups         3689956                       # Number of BP lookups
system.switch_cpus.branchPred.usedRAS              34                       # Number of times the RAS was used to get a target.
system.switch_cpus.branchPredindirectMispredicted           92                       # Number of mispredicted indirect branches.
system.switch_cpus.cc_regfile_reads          20144294                       # number of cc regfile reads
system.switch_cpus.cc_regfile_writes         12020952                       # number of cc regfile writes
system.switch_cpus.commit.amos                      0                       # Number of atomic instructions committed
system.switch_cpus.commit.branchMispredicts        15685                       # The number of times a branch was mispredicted
system.switch_cpus.commit.branches            3676346                       # Number of branches committed
system.switch_cpus.commit.bw_lim_events      37333890                       # number cycles where commit BW limit reached
system.switch_cpus.commit.commitSquashedInsts       784138                       # The number of squashed insts skipped by commit
system.switch_cpus.commit.committedInsts    500000001                       # Number of instructions committed
system.switch_cpus.commit.committedOps      700735521                       # Number of ops (including micro ops) committed
system.switch_cpus.commit.committed_per_cycle::samples   2566787906                       # Number of insts commited each cycle
system.switch_cpus.commit.committed_per_cycle::mean     0.273001                       # Number of insts commited each cycle
system.switch_cpus.commit.committed_per_cycle::stdev     1.189699                       # Number of insts commited each cycle
system.switch_cpus.commit.committed_per_cycle::underflows            0      0.00%      0.00% # Number of insts commited each cycle
system.switch_cpus.commit.committed_per_cycle::0   2362137896     92.03%     92.03% # Number of insts commited each cycle
system.switch_cpus.commit.committed_per_cycle::1     75855065      2.96%     94.98% # Number of insts commited each cycle
system.switch_cpus.commit.committed_per_cycle::2     27403072      1.07%     96.05% # Number of insts commited each cycle
system.switch_cpus.commit.committed_per_cycle::3     24856305      0.97%     97.02% # Number of insts commited each cycle
system.switch_cpus.commit.committed_per_cycle::4     13844460      0.54%     97.56% # Number of insts commited each cycle
system.switch_cpus.commit.committed_per_cycle::5     15154493      0.59%     98.15% # Number of insts commited each cycle
system.switch_cpus.commit.committed_per_cycle::6      5735107      0.22%     98.37% # Number of insts commited each cycle
system.switch_cpus.commit.committed_per_cycle::7      4467618      0.17%     98.55% # Number of insts commited each cycle
system.switch_cpus.commit.committed_per_cycle::8     37333890      1.45%    100.00% # Number of insts commited each cycle
system.switch_cpus.commit.committed_per_cycle::overflows            0      0.00%    100.00% # Number of insts commited each cycle
system.switch_cpus.commit.committed_per_cycle::min_value            0                       # Number of insts commited each cycle
system.switch_cpus.commit.committed_per_cycle::max_value            8                       # Number of insts commited each cycle
system.switch_cpus.commit.committed_per_cycle::total   2566787906                       # Number of insts commited each cycle
system.switch_cpus.commit.fp_insts          666097691                       # Number of committed floating point instructions.
system.switch_cpus.commit.function_calls            2                       # Number of function calls committed.
system.switch_cpus.commit.int_insts         227365428                       # Number of committed integer instructions.
system.switch_cpus.commit.loads             126270186                       # Number of loads committed
system.switch_cpus.commit.membars                   0                       # Number of memory barriers committed
system.switch_cpus.commit.op_class_0::No_OpClass            0      0.00%      0.00% # Class of committed instruction
system.switch_cpus.commit.op_class_0::IntAlu    137738657     19.66%     19.66% # Class of committed instruction
system.switch_cpus.commit.op_class_0::IntMult            0      0.00%     19.66% # Class of committed instruction
system.switch_cpus.commit.op_class_0::IntDiv            0      0.00%     19.66% # Class of committed instruction
system.switch_cpus.commit.op_class_0::FloatAdd     93713253     13.37%     33.03% # Class of committed instruction
system.switch_cpus.commit.op_class_0::FloatCmp            0      0.00%     33.03% # Class of committed instruction
system.switch_cpus.commit.op_class_0::FloatCvt            0      0.00%     33.03% # Class of committed instruction
system.switch_cpus.commit.op_class_0::FloatMult            0      0.00%     33.03% # Class of committed instruction
system.switch_cpus.commit.op_class_0::FloatMultAcc            0      0.00%     33.03% # Class of committed instruction
system.switch_cpus.commit.op_class_0::FloatDiv            0      0.00%     33.03% # Class of committed instruction
system.switch_cpus.commit.op_class_0::FloatMisc            0      0.00%     33.03% # Class of committed instruction
system.switch_cpus.commit.op_class_0::FloatSqrt            0      0.00%     33.03% # Class of committed instruction
system.switch_cpus.commit.op_class_0::SimdAdd            0      0.00%     33.03% # Class of committed instruction
system.switch_cpus.commit.op_class_0::SimdAddAcc            0      0.00%     33.03% # Class of committed instruction
system.switch_cpus.commit.op_class_0::SimdAlu        36864      0.01%     33.04% # Class of committed instruction
system.switch_cpus.commit.op_class_0::SimdCmp            0      0.00%     33.04% # Class of committed instruction
system.switch_cpus.commit.op_class_0::SimdCvt            0      0.00%     33.04% # Class of committed instruction
system.switch_cpus.commit.op_class_0::SimdMisc            0      0.00%     33.04% # Class of committed instruction
system.switch_cpus.commit.op_class_0::SimdMult            0      0.00%     33.04% # Class of committed instruction
system.switch_cpus.commit.op_class_0::SimdMultAcc            0      0.00%     33.04% # Class of committed instruction
system.switch_cpus.commit.op_class_0::SimdShift            0      0.00%     33.04% # Class of committed instruction
system.switch_cpus.commit.op_class_0::SimdShiftAcc            0      0.00%     33.04% # Class of committed instruction
system.switch_cpus.commit.op_class_0::SimdDiv            0      0.00%     33.04% # Class of committed instruction
system.switch_cpus.commit.op_class_0::SimdSqrt            0      0.00%     33.04% # Class of committed instruction
system.switch_cpus.commit.op_class_0::SimdFloatAdd    169178503     24.14%     57.18% # Class of committed instruction
system.switch_cpus.commit.op_class_0::SimdFloatAlu            0      0.00%     57.18% # Class of committed instruction
system.switch_cpus.commit.op_class_0::SimdFloatCmp            0      0.00%     57.18% # Class of committed instruction
system.switch_cpus.commit.op_class_0::SimdFloatCvt            0      0.00%     57.18% # Class of committed instruction
system.switch_cpus.commit.op_class_0::SimdFloatDiv      3302307      0.47%     57.65% # Class of committed instruction
system.switch_cpus.commit.op_class_0::SimdFloatMisc            0      0.00%     57.65% # Class of committed instruction
system.switch_cpus.commit.op_class_0::SimdFloatMult    102560975     14.64%     72.29% # Class of committed instruction
system.switch_cpus.commit.op_class_0::SimdFloatMultAcc            0      0.00%     72.29% # Class of committed instruction
system.switch_cpus.commit.op_class_0::SimdFloatSqrt            0      0.00%     72.29% # Class of committed instruction
system.switch_cpus.commit.op_class_0::SimdReduceAdd            0      0.00%     72.29% # Class of committed instruction
system.switch_cpus.commit.op_class_0::SimdReduceAlu            0      0.00%     72.29% # Class of committed instruction
system.switch_cpus.commit.op_class_0::SimdReduceCmp            0      0.00%     72.29% # Class of committed instruction
system.switch_cpus.commit.op_class_0::SimdFloatReduceAdd            0      0.00%     72.29% # Class of committed instruction
system.switch_cpus.commit.op_class_0::SimdFloatReduceCmp            0      0.00%     72.29% # Class of committed instruction
system.switch_cpus.commit.op_class_0::SimdAes            0      0.00%     72.29% # Class of committed instruction
system.switch_cpus.commit.op_class_0::SimdAesMix            0      0.00%     72.29% # Class of committed instruction
system.switch_cpus.commit.op_class_0::SimdSha1Hash            0      0.00%     72.29% # Class of committed instruction
system.switch_cpus.commit.op_class_0::SimdSha1Hash2            0      0.00%     72.29% # Class of committed instruction
system.switch_cpus.commit.op_class_0::SimdSha256Hash            0      0.00%     72.29% # Class of committed instruction
system.switch_cpus.commit.op_class_0::SimdSha256Hash2            0      0.00%     72.29% # Class of committed instruction
system.switch_cpus.commit.op_class_0::SimdShaSigma2            0      0.00%     72.29% # Class of committed instruction
system.switch_cpus.commit.op_class_0::SimdShaSigma3            0      0.00%     72.29% # Class of committed instruction
system.switch_cpus.commit.op_class_0::SimdPredAlu            0      0.00%     72.29% # Class of committed instruction
system.switch_cpus.commit.op_class_0::MemRead      1329902      0.19%     72.48% # Class of committed instruction
system.switch_cpus.commit.op_class_0::MemWrite       147460      0.02%     72.50% # Class of committed instruction
system.switch_cpus.commit.op_class_0::FloatMemRead    124940284     17.83%     90.33% # Class of committed instruction
system.switch_cpus.commit.op_class_0::FloatMemWrite     67787315      9.67%    100.00% # Class of committed instruction
system.switch_cpus.commit.op_class_0::IprAccess            0      0.00%    100.00% # Class of committed instruction
system.switch_cpus.commit.op_class_0::InstPrefetch            0      0.00%    100.00% # Class of committed instruction
system.switch_cpus.commit.op_class_0::total    700735520                       # Class of committed instruction
system.switch_cpus.commit.refs              194204961                       # Number of memory references committed
system.switch_cpus.commit.swp_count                 0                       # Number of s/w prefetches committed
system.switch_cpus.commit.vec_insts                 0                       # Number of committed Vector instructions.
system.switch_cpus.committedInsts           500000000                       # Number of Instructions Simulated
system.switch_cpus.committedOps             700735520                       # Number of Ops (including micro ops) Simulated
system.switch_cpus.cpi                       5.133790                       # CPI: Cycles Per Instruction
system.switch_cpus.cpi_total                 5.133790                       # CPI: Total CPI of All Threads
system.switch_cpus.decode.BlockedCycles    2381452050                       # Number of cycles decode is blocked
system.switch_cpus.decode.DecodedInsts      701605908                       # Number of instructions handled by decode
system.switch_cpus.decode.IdleCycles         10021409                       # Number of cycles decode is idle
system.switch_cpus.decode.RunCycles         152250464                       # Number of cycles decode is running
system.switch_cpus.decode.SquashCycles          17580                       # Number of cycles decode is squashing
system.switch_cpus.decode.UnblockCycles      23151133                       # Number of cycles decode is unblocking
system.switch_cpus.dtb.rdAccesses           126529267                       # TLB accesses on read requests
system.switch_cpus.dtb.rdMisses                 47636                       # TLB misses on read requests
system.switch_cpus.dtb.wrAccesses            67934776                       # TLB accesses on write requests
system.switch_cpus.dtb.wrMisses                142942                       # TLB misses on write requests
system.switch_cpus.fetch.Branches             3689956                       # Number of branches that fetch encountered
system.switch_cpus.fetch.CacheLines          43145273                       # Number of cache lines fetched
system.switch_cpus.fetch.Cycles            2523701107                       # Number of cycles fetch has run and was not squashing or blocked
system.switch_cpus.fetch.IcacheSquashes           300                       # Number of outstanding Icache misses that were squashed
system.switch_cpus.fetch.Insts              501078946                       # Number of instructions fetch has processed
system.switch_cpus.fetch.MiscStallCycles           23                       # Number of cycles fetch has spent waiting on interrupts, or bad addresses, or out of MSHRs
system.switch_cpus.fetch.PendingTrapStallCycles         6868                       # Number of stall cycles due to pending traps
system.switch_cpus.fetch.SquashCycles           35160                       # Number of cycles fetch has spent squashing
system.switch_cpus.fetch.TlbCycles               4559                       # Number of cycles fetch has spent waiting for tlb
system.switch_cpus.fetch.branchRate          0.001438                       # Number of branch fetches per cycle
system.switch_cpus.fetch.icacheStallCycles     43162531                       # Number of cycles fetch is stalled on an Icache miss
system.switch_cpus.fetch.predictedBranches      1319768                       # Number of branches that fetch has predicted taken
system.switch_cpus.fetch.rate                0.195208                       # Number of inst fetches per cycle
system.switch_cpus.fetch.rateDist::samples   2566892668                       # Number of instructions fetched each cycle (Total)
system.switch_cpus.fetch.rateDist::mean      0.273595                       # Number of instructions fetched each cycle (Total)
system.switch_cpus.fetch.rateDist::stdev     1.274274                       # Number of instructions fetched each cycle (Total)
system.switch_cpus.fetch.rateDist::underflows            0      0.00%      0.00% # Number of instructions fetched each cycle (Total)
system.switch_cpus.fetch.rateDist::0       2428836738     94.62%     94.62% # Number of instructions fetched each cycle (Total)
system.switch_cpus.fetch.rateDist::1         11772108      0.46%     95.08% # Number of instructions fetched each cycle (Total)
system.switch_cpus.fetch.rateDist::2         11645978      0.45%     95.53% # Number of instructions fetched each cycle (Total)
system.switch_cpus.fetch.rateDist::3         10210745      0.40%     95.93% # Number of instructions fetched each cycle (Total)
system.switch_cpus.fetch.rateDist::4         36310717      1.41%     97.35% # Number of instructions fetched each cycle (Total)
system.switch_cpus.fetch.rateDist::5          9227648      0.36%     97.71% # Number of instructions fetched each cycle (Total)
system.switch_cpus.fetch.rateDist::6          8940639      0.35%     98.05% # Number of instructions fetched each cycle (Total)
system.switch_cpus.fetch.rateDist::7          8017492      0.31%     98.37% # Number of instructions fetched each cycle (Total)
system.switch_cpus.fetch.rateDist::8         41930603      1.63%    100.00% # Number of instructions fetched each cycle (Total)
system.switch_cpus.fetch.rateDist::overflows            0      0.00%    100.00% # Number of instructions fetched each cycle (Total)
system.switch_cpus.fetch.rateDist::min_value            0                       # Number of instructions fetched each cycle (Total)
system.switch_cpus.fetch.rateDist::max_value            8                       # Number of instructions fetched each cycle (Total)
system.switch_cpus.fetch.rateDist::total   2566892668                       # Number of instructions fetched each cycle (Total)
system.switch_cpus.fp_regfile_reads        1102151432                       # number of floating regfile reads
system.switch_cpus.fp_regfile_writes        598568056                       # number of floating regfile writes
system.switch_cpus.idleCycles                    2171                       # Total number of cycles that the CPU has spent unscheduled due to idling
system.switch_cpus.iew.branchMispredicts        15685                       # Number of branch mispredicts detected at execute
system.switch_cpus.iew.exec_branches          3676890                       # Number of branches executed
system.switch_cpus.iew.exec_nop                     0                       # number of nop insts executed
system.switch_cpus.iew.exec_rate             0.320228                       # Inst execution rate
system.switch_cpus.iew.exec_refs            315173609                       # number of memory reference insts executed
system.switch_cpus.iew.exec_stores           67934776                       # Number of stores executed
system.switch_cpus.iew.exec_swp                     0                       # number of swp insts executed
system.switch_cpus.iew.iewBlockCycles         4574755                       # Number of cycles IEW is blocking
system.switch_cpus.iew.iewDispLoadInsts     126529783                       # Number of dispatched load instructions
system.switch_cpus.iew.iewDispNonSpecInsts            0                       # Number of dispatched non-speculative instructions
system.switch_cpus.iew.iewDispSquashedInsts         2189                       # Number of squashed instructions skipped by dispatch
system.switch_cpus.iew.iewDispStoreInsts     68140700                       # Number of dispatched store instructions
system.switch_cpus.iew.iewDispatchedInsts    701515828                       # Number of instructions dispatched to IQ
system.switch_cpus.iew.iewExecLoadInsts     247238833                       # Number of load instructions executed
system.switch_cpus.iew.iewExecSquashedInsts        56011                       # Number of squashed instructions skipped in execute
system.switch_cpus.iew.iewExecutedInsts     821991340                       # Number of executed instructions
system.switch_cpus.iew.iewIQFullEvents         280208                       # Number of times the IQ has become full, causing a stall
system.switch_cpus.iew.iewIdleCycles                0                       # Number of cycles IEW is idle
system.switch_cpus.iew.iewLSQFullEvents     480619019                       # Number of times the LSQ has become full, causing a stall
system.switch_cpus.iew.iewSquashCycles          17580                       # Number of cycles IEW is squashing
system.switch_cpus.iew.iewUnblockCycles     481167689                       # Number of cycles IEW is unblocking
system.switch_cpus.iew.lsq.thread0.blockedLoads            0                       # Number of blocked loads due to partial load-store forwarding
system.switch_cpus.iew.lsq.thread0.cacheBlocked     11114760                       # Number of times an access to memory failed due to the cache being blocked
system.switch_cpus.iew.lsq.thread0.forwLoads     43489315                       # Number of loads that had data forwarded from stores
system.switch_cpus.iew.lsq.thread0.ignoredResponses           11                       # Number of memory responses ignored because the instruction is squashed
system.switch_cpus.iew.lsq.thread0.invAddrLoads            0                       # Number of loads ignored due to an invalid address
system.switch_cpus.iew.lsq.thread0.invAddrSwpfs            0                       # Number of software prefetches ignored due to an invalid address
system.switch_cpus.iew.lsq.thread0.memOrderViolation         3520                       # Number of memory ordering violations
system.switch_cpus.iew.lsq.thread0.rescheduledLoads            0                       # Number of loads that were rescheduled
system.switch_cpus.iew.lsq.thread0.squashedLoads       259592                       # Number of loads squashed
system.switch_cpus.iew.lsq.thread0.squashedStores       205922                       # Number of stores squashed
system.switch_cpus.iew.memOrderViolationEvents         3520                       # Number of memory order violations
system.switch_cpus.iew.predictedNotTakenIncorrect        14350                       # Number of branches that were predicted not taken incorrectly
system.switch_cpus.iew.predictedTakenIncorrect         1335                       # Number of branches that were predicted taken incorrectly
system.switch_cpus.iew.wb_consumers         774884295                       # num instructions consuming a value
system.switch_cpus.iew.wb_count             701024385                       # cumulative count of insts written-back
system.switch_cpus.iew.wb_fanout             0.581458                       # average fanout of values written-back
system.switch_cpus.iew.wb_producers         450562902                       # num instructions producing a value
system.switch_cpus.iew.wb_rate               0.273102                       # insts written-back per cycle
system.switch_cpus.iew.wb_sent              701024458                       # cumulative count of insts sent to commit
system.switch_cpus.int_regfile_reads        654574515                       # number of integer regfile reads
system.switch_cpus.int_regfile_writes        30844660                       # number of integer regfile writes
system.switch_cpus.ipc                       0.194788                       # IPC: Instructions Per Cycle
system.switch_cpus.ipc_total                 0.194788                       # IPC: Total IPC of All Threads
system.switch_cpus.iq.FU_type_0::No_OpClass           90      0.00%      0.00% # Type of FU issued
system.switch_cpus.iq.FU_type_0::IntAlu     137772984     16.76%     16.76% # Type of FU issued
system.switch_cpus.iq.FU_type_0::IntMult            0      0.00%     16.76% # Type of FU issued
system.switch_cpus.iq.FU_type_0::IntDiv             0      0.00%     16.76% # Type of FU issued
system.switch_cpus.iq.FU_type_0::FloatAdd     93965876     11.43%     28.19% # Type of FU issued
system.switch_cpus.iq.FU_type_0::FloatCmp            0      0.00%     28.19% # Type of FU issued
system.switch_cpus.iq.FU_type_0::FloatCvt            0      0.00%     28.19% # Type of FU issued
system.switch_cpus.iq.FU_type_0::FloatMult            0      0.00%     28.19% # Type of FU issued
system.switch_cpus.iq.FU_type_0::FloatMultAcc            0      0.00%     28.19% # Type of FU issued
system.switch_cpus.iq.FU_type_0::FloatDiv            0      0.00%     28.19% # Type of FU issued
system.switch_cpus.iq.FU_type_0::FloatMisc            0      0.00%     28.19% # Type of FU issued
system.switch_cpus.iq.FU_type_0::FloatSqrt            0      0.00%     28.19% # Type of FU issued
system.switch_cpus.iq.FU_type_0::SimdAdd            0      0.00%     28.19% # Type of FU issued
system.switch_cpus.iq.FU_type_0::SimdAddAcc            0      0.00%     28.19% # Type of FU issued
system.switch_cpus.iq.FU_type_0::SimdAlu        36864      0.00%     28.19% # Type of FU issued
system.switch_cpus.iq.FU_type_0::SimdCmp            0      0.00%     28.19% # Type of FU issued
system.switch_cpus.iq.FU_type_0::SimdCvt            0      0.00%     28.19% # Type of FU issued
system.switch_cpus.iq.FU_type_0::SimdMisc            0      0.00%     28.19% # Type of FU issued
system.switch_cpus.iq.FU_type_0::SimdMult            0      0.00%     28.19% # Type of FU issued
system.switch_cpus.iq.FU_type_0::SimdMultAcc            0      0.00%     28.19% # Type of FU issued
system.switch_cpus.iq.FU_type_0::SimdShift            0      0.00%     28.19% # Type of FU issued
system.switch_cpus.iq.FU_type_0::SimdShiftAcc            0      0.00%     28.19% # Type of FU issued
system.switch_cpus.iq.FU_type_0::SimdDiv            0      0.00%     28.19% # Type of FU issued
system.switch_cpus.iq.FU_type_0::SimdSqrt            0      0.00%     28.19% # Type of FU issued
system.switch_cpus.iq.FU_type_0::SimdFloatAdd    169179591     20.58%     48.78% # Type of FU issued
system.switch_cpus.iq.FU_type_0::SimdFloatAlu            0      0.00%     48.78% # Type of FU issued
system.switch_cpus.iq.FU_type_0::SimdFloatCmp            0      0.00%     48.78% # Type of FU issued
system.switch_cpus.iq.FU_type_0::SimdFloatCvt            0      0.00%     48.78% # Type of FU issued
system.switch_cpus.iq.FU_type_0::SimdFloatDiv      3302307      0.40%     49.18% # Type of FU issued
system.switch_cpus.iq.FU_type_0::SimdFloatMisc            0      0.00%     49.18% # Type of FU issued
system.switch_cpus.iq.FU_type_0::SimdFloatMult    102560975     12.48%     61.65% # Type of FU issued
system.switch_cpus.iq.FU_type_0::SimdFloatMultAcc            0      0.00%     61.65% # Type of FU issued
system.switch_cpus.iq.FU_type_0::SimdFloatSqrt            0      0.00%     61.65% # Type of FU issued
system.switch_cpus.iq.FU_type_0::SimdReduceAdd            0      0.00%     61.65% # Type of FU issued
system.switch_cpus.iq.FU_type_0::SimdReduceAlu            0      0.00%     61.65% # Type of FU issued
system.switch_cpus.iq.FU_type_0::SimdReduceCmp            0      0.00%     61.65% # Type of FU issued
system.switch_cpus.iq.FU_type_0::SimdFloatReduceAdd            0      0.00%     61.65% # Type of FU issued
system.switch_cpus.iq.FU_type_0::SimdFloatReduceCmp            0      0.00%     61.65% # Type of FU issued
system.switch_cpus.iq.FU_type_0::SimdAes            0      0.00%     61.65% # Type of FU issued
system.switch_cpus.iq.FU_type_0::SimdAesMix            0      0.00%     61.65% # Type of FU issued
system.switch_cpus.iq.FU_type_0::SimdSha1Hash            0      0.00%     61.65% # Type of FU issued
system.switch_cpus.iq.FU_type_0::SimdSha1Hash2            0      0.00%     61.65% # Type of FU issued
system.switch_cpus.iq.FU_type_0::SimdSha256Hash            0      0.00%     61.65% # Type of FU issued
system.switch_cpus.iq.FU_type_0::SimdSha256Hash2            0      0.00%     61.65% # Type of FU issued
system.switch_cpus.iq.FU_type_0::SimdShaSigma2            0      0.00%     61.65% # Type of FU issued
system.switch_cpus.iq.FU_type_0::SimdShaSigma3            0      0.00%     61.65% # Type of FU issued
system.switch_cpus.iq.FU_type_0::SimdPredAlu            0      0.00%     61.65% # Type of FU issued
system.switch_cpus.iq.FU_type_0::MemRead      2671922      0.33%     61.98% # Type of FU issued
system.switch_cpus.iq.FU_type_0::MemWrite       147460      0.02%     62.00% # Type of FU issued
system.switch_cpus.iq.FU_type_0::FloatMemRead    244621945     29.76%     91.75% # Type of FU issued
system.switch_cpus.iq.FU_type_0::FloatMemWrite     67787340      8.25%    100.00% # Type of FU issued
system.switch_cpus.iq.FU_type_0::IprAccess            0      0.00%    100.00% # Type of FU issued
system.switch_cpus.iq.FU_type_0::InstPrefetch            0      0.00%    100.00% # Type of FU issued
system.switch_cpus.iq.FU_type_0::total      822047354                       # Type of FU issued
system.switch_cpus.iq.fp_alu_accesses       786035790                       # Number of floating point alu accesses
system.switch_cpus.iq.fp_inst_queue_reads   1572273943                       # Number of floating instruction queue reads
system.switch_cpus.iq.fp_inst_queue_wakeup_accesses    666355322                       # Number of floating instruction queue wakeup accesses
system.switch_cpus.iq.fp_inst_queue_writes    667594158                       # Number of floating instruction queue writes
system.switch_cpus.iq.fu_busy_cnt                   0                       # FU busy when requested
system.switch_cpus.iq.fu_busy_rate                  0                       # FU busy rate (busy events/executed inst)
system.switch_cpus.iq.fu_full::No_OpClass            0                       # attempts to use FU when none available
system.switch_cpus.iq.fu_full::IntAlu               0                       # attempts to use FU when none available
system.switch_cpus.iq.fu_full::IntMult              0                       # attempts to use FU when none available
system.switch_cpus.iq.fu_full::IntDiv               0                       # attempts to use FU when none available
system.switch_cpus.iq.fu_full::FloatAdd             0                       # attempts to use FU when none available
system.switch_cpus.iq.fu_full::FloatCmp             0                       # attempts to use FU when none available
system.switch_cpus.iq.fu_full::FloatCvt             0                       # attempts to use FU when none available
system.switch_cpus.iq.fu_full::FloatMult            0                       # attempts to use FU when none available
system.switch_cpus.iq.fu_full::FloatMultAcc            0                       # attempts to use FU when none available
system.switch_cpus.iq.fu_full::FloatDiv             0                       # attempts to use FU when none available
system.switch_cpus.iq.fu_full::FloatMisc            0                       # attempts to use FU when none available
system.switch_cpus.iq.fu_full::FloatSqrt            0                       # attempts to use FU when none available
system.switch_cpus.iq.fu_full::SimdAdd              0                       # attempts to use FU when none available
system.switch_cpus.iq.fu_full::SimdAddAcc            0                       # attempts to use FU when none available
system.switch_cpus.iq.fu_full::SimdAlu              0                       # attempts to use FU when none available
system.switch_cpus.iq.fu_full::SimdCmp              0                       # attempts to use FU when none available
system.switch_cpus.iq.fu_full::SimdCvt              0                       # attempts to use FU when none available
system.switch_cpus.iq.fu_full::SimdMisc             0                       # attempts to use FU when none available
system.switch_cpus.iq.fu_full::SimdMult             0                       # attempts to use FU when none available
system.switch_cpus.iq.fu_full::SimdMultAcc            0                       # attempts to use FU when none available
system.switch_cpus.iq.fu_full::SimdShift            0                       # attempts to use FU when none available
system.switch_cpus.iq.fu_full::SimdShiftAcc            0                       # attempts to use FU when none available
system.switch_cpus.iq.fu_full::SimdDiv              0                       # attempts to use FU when none available
system.switch_cpus.iq.fu_full::SimdSqrt             0                       # attempts to use FU when none available
system.switch_cpus.iq.fu_full::SimdFloatAdd            0                       # attempts to use FU when none available
system.switch_cpus.iq.fu_full::SimdFloatAlu            0                       # attempts to use FU when none available
system.switch_cpus.iq.fu_full::SimdFloatCmp            0                       # attempts to use FU when none available
system.switch_cpus.iq.fu_full::SimdFloatCvt            0                       # attempts to use FU when none available
system.switch_cpus.iq.fu_full::SimdFloatDiv            0                       # attempts to use FU when none available
system.switch_cpus.iq.fu_full::SimdFloatMisc            0                       # attempts to use FU when none available
system.switch_cpus.iq.fu_full::SimdFloatMult            0                       # attempts to use FU when none available
system.switch_cpus.iq.fu_full::SimdFloatMultAcc            0                       # attempts to use FU when none available
system.switch_cpus.iq.fu_full::SimdFloatSqrt            0                       # attempts to use FU when none available
system.switch_cpus.iq.fu_full::SimdReduceAdd            0                       # attempts to use FU when none available
system.switch_cpus.iq.fu_full::SimdReduceAlu            0                       # attempts to use FU when none available
system.switch_cpus.iq.fu_full::SimdReduceCmp            0                       # attempts to use FU when none available
system.switch_cpus.iq.fu_full::SimdFloatReduceAdd            0                       # attempts to use FU when none available
system.switch_cpus.iq.fu_full::SimdFloatReduceCmp            0                       # attempts to use FU when none available
system.switch_cpus.iq.fu_full::SimdAes              0                       # attempts to use FU when none available
system.switch_cpus.iq.fu_full::SimdAesMix            0                       # attempts to use FU when none available
system.switch_cpus.iq.fu_full::SimdSha1Hash            0                       # attempts to use FU when none available
system.switch_cpus.iq.fu_full::SimdSha1Hash2            0                       # attempts to use FU when none available
system.switch_cpus.iq.fu_full::SimdSha256Hash            0                       # attempts to use FU when none available
system.switch_cpus.iq.fu_full::SimdSha256Hash2            0                       # attempts to use FU when none available
system.switch_cpus.iq.fu_full::SimdShaSigma2            0                       # attempts to use FU when none available
system.switch_cpus.iq.fu_full::SimdShaSigma3            0                       # attempts to use FU when none available
system.switch_cpus.iq.fu_full::SimdPredAlu            0                       # attempts to use FU when none available
system.switch_cpus.iq.fu_full::MemRead              0                       # attempts to use FU when none available
system.switch_cpus.iq.fu_full::MemWrite             0                       # attempts to use FU when none available
system.switch_cpus.iq.fu_full::FloatMemRead            0                       # attempts to use FU when none available
system.switch_cpus.iq.fu_full::FloatMemWrite            0                       # attempts to use FU when none available
system.switch_cpus.iq.fu_full::IprAccess            0                       # attempts to use FU when none available
system.switch_cpus.iq.fu_full::InstPrefetch            0                       # attempts to use FU when none available
system.switch_cpus.iq.int_alu_accesses       36011474                       # Number of integer alu accesses
system.switch_cpus.iq.int_inst_queue_reads   2638916077                       # Number of integer instruction queue reads
system.switch_cpus.iq.int_inst_queue_wakeup_accesses     34669063                       # Number of integer instruction queue wakeup accesses
system.switch_cpus.iq.int_inst_queue_writes     34705479                       # Number of integer instruction queue writes
system.switch_cpus.iq.iqInstsAdded          701515828                       # Number of instructions added to the IQ (excludes non-spec)
system.switch_cpus.iq.iqInstsIssued         822047354                       # Number of instructions issued
system.switch_cpus.iq.iqSquashedInstsExamined       780289                       # Number of squashed instructions iterated over during squash; mainly for profiling
system.switch_cpus.iq.iqSquashedInstsIssued       202647                       # Number of squashed instructions issued
system.switch_cpus.iq.iqSquashedOperandsExamined      1674153                       # Number of squashed operands that are examined and possibly removed from graph
system.switch_cpus.iq.issued_per_cycle::samples   2566892668                       # Number of insts issued each cycle
system.switch_cpus.iq.issued_per_cycle::mean     0.320250                       # Number of insts issued each cycle
system.switch_cpus.iq.issued_per_cycle::stdev     1.020605                       # Number of insts issued each cycle
system.switch_cpus.iq.issued_per_cycle::underflows            0      0.00%      0.00% # Number of insts issued each cycle
system.switch_cpus.iq.issued_per_cycle::0   2300544712     89.62%     89.62% # Number of insts issued each cycle
system.switch_cpus.iq.issued_per_cycle::1     56772931      2.21%     91.84% # Number of insts issued each cycle
system.switch_cpus.iq.issued_per_cycle::2     19115280      0.74%     92.58% # Number of insts issued each cycle
system.switch_cpus.iq.issued_per_cycle::3     34795117      1.36%     93.94% # Number of insts issued each cycle
system.switch_cpus.iq.issued_per_cycle::4    155664628      6.06%    100.00% # Number of insts issued each cycle
system.switch_cpus.iq.issued_per_cycle::overflows            0      0.00%    100.00% # Number of insts issued each cycle
system.switch_cpus.iq.issued_per_cycle::min_value            0                       # Number of insts issued each cycle
system.switch_cpus.iq.issued_per_cycle::max_value            4                       # Number of insts issued each cycle
system.switch_cpus.iq.issued_per_cycle::total   2566892668                       # Number of insts issued each cycle
system.switch_cpus.iq.rate                   0.320250                       # Inst issue rate
system.switch_cpus.iq.vec_alu_accesses              0                       # Number of vector alu accesses
system.switch_cpus.iq.vec_inst_queue_reads            0                       # Number of vector instruction queue reads
system.switch_cpus.iq.vec_inst_queue_wakeup_accesses            0                       # Number of vector instruction queue wakeup accesses
system.switch_cpus.iq.vec_inst_queue_writes            0                       # Number of vector instruction queue writes
system.switch_cpus.itb.rdAccesses                   0                       # TLB accesses on read requests
system.switch_cpus.itb.rdMisses                     0                       # TLB misses on read requests
system.switch_cpus.itb.wrAccesses            43145314                       # TLB accesses on write requests
system.switch_cpus.itb.wrMisses                    44                       # TLB misses on write requests
system.switch_cpus.memDep0.conflictingLoads      3692576                       # Number of conflicting loads.
system.switch_cpus.memDep0.conflictingStores      1108732                       # Number of conflicting stores.
system.switch_cpus.memDep0.insertedLoads    126529783                       # Number of loads inserted to the mem dependence unit.
system.switch_cpus.memDep0.insertedStores     68140700                       # Number of stores inserted to the mem dependence unit.
system.switch_cpus.misc_regfile_reads       333886685                       # number of misc regfile reads
system.switch_cpus.numCycles               2566894839                       # number of cpu cycles simulated
system.switch_cpus.numWorkItemsCompleted            0                       # number of work items this cpu completed
system.switch_cpus.numWorkItemsStarted              0                       # number of work items this cpu started
system.switch_cpus.rename.BlockCycles       486540024                       # Number of cycles rename is blocking
system.switch_cpus.rename.CommittedMaps     641117226                       # Number of HB maps that are committed
system.switch_cpus.rename.IQFullEvents         792864                       # Number of times rename has blocked due to IQ full
system.switch_cpus.rename.IdleCycles         19210147                       # Number of cycles rename is idle
system.switch_cpus.rename.RenameLookups    1749565718                       # Number of register rename lookups that rename has made
system.switch_cpus.rename.RenamedInsts      701531940                       # Number of instructions processed by rename
system.switch_cpus.rename.RenamedOperands    641733872                       # Number of destination operands rename has renamed
system.switch_cpus.rename.RunCycles         162897293                       # Number of cycles rename is running
system.switch_cpus.rename.SQFullEvents     1892450505                       # Number of times rename has blocked due to SQ full
system.switch_cpus.rename.SquashCycles          17580                       # Number of cycles rename is squashing
system.switch_cpus.rename.UnblockCycles    1898227593                       # Number of cycles rename is unblocking
system.switch_cpus.rename.UndoneMaps           616620                       # Number of HB maps that are undone due to squashing
system.switch_cpus.rename.fp_rename_lookups   1102461087                       # Number of floating rename lookups
system.switch_cpus.rename.int_rename_lookups    413573668                       # Number of integer rename lookups
system.switch_cpus.rename.serializeStallCycles            0                       # count of cycles rename stalled for serializing inst
system.switch_cpus.rename.serializingInsts            0                       # count of serializing insts renamed
system.switch_cpus.rename.skidInsts          74369704                       # count of insts added to the skid buffer
system.switch_cpus.rename.tempSerializingInsts            0                       # count of temporary serializing insts renamed
system.switch_cpus.rob.rob_reads           3230973675                       # The number of ROB reads
system.switch_cpus.rob.rob_writes          1403144370                       # The number of ROB writes
system.switch_cpus.timesIdled                      16                       # Number of times that the entire CPU went into an idle state and unscheduled itself
system.tol2bus.snoop_filter.hit_multi_requests            0                       # Number of requests hitting in the snoop filter with multiple (>1) holders of the requested data.
system.tol2bus.snoop_filter.hit_multi_snoops            0                       # Number of snoops hitting in the snoop filter with multiple (>1) holders of the requested data.
system.tol2bus.snoop_filter.hit_single_requests     20124645                       # Number of requests hitting in the snoop filter with a single holder of the requested data.
system.tol2bus.snoop_filter.hit_single_snoops         3683                       # Number of snoops hitting in the snoop filter with a single holder of the requested data.
system.tol2bus.snoop_filter.tot_requests     40252973                       # Total number of requests made to the snoop filter.
system.tol2bus.snoop_filter.tot_snoops           3683                       # Total number of snoops made to the snoop filter.
system.membus.pwrStateResidencyTicks::UNDEFINED 2254743670000                       # Cumulative time (in ticks) in various power states
system.membus.trans_dist::ReadResp            3049656                       # Transaction distribution
system.membus.trans_dist::WritebackDirty     10365213                       # Transaction distribution
system.membus.trans_dist::CleanEvict          3049663                       # Transaction distribution
system.membus.trans_dist::ReadExReq          10365220                       # Transaction distribution
system.membus.trans_dist::ReadExResp         10365220                       # Transaction distribution
system.membus.trans_dist::ReadSharedReq       3049656                       # Transaction distribution
system.membus.pkt_count_system.l2.mem_side::system.mem_ctrls.port     40244628                       # Packet count per connected master and slave (bytes)
system.membus.pkt_count_system.l2.mem_side::total     40244628                       # Packet count per connected master and slave (bytes)
system.membus.pkt_count::total               40244628                       # Packet count per connected master and slave (bytes)
system.membus.pkt_size_system.l2.mem_side::system.mem_ctrls.port   1521925696                       # Cumulative packet size per connected master and slave (bytes)
system.membus.pkt_size_system.l2.mem_side::total   1521925696                       # Cumulative packet size per connected master and slave (bytes)
system.membus.pkt_size::total              1521925696                       # Cumulative packet size per connected master and slave (bytes)
system.membus.snoops                                0                       # Total snoops (count)
system.membus.snoopTraffic                          0                       # Total snoop traffic (bytes)
system.membus.snoop_fanout::samples          13414876                       # Request fanout histogram
system.membus.snoop_fanout::mean                    0                       # Request fanout histogram
system.membus.snoop_fanout::stdev                   0                       # Request fanout histogram
system.membus.snoop_fanout::underflows              0      0.00%      0.00% # Request fanout histogram
system.membus.snoop_fanout::0                13414876    100.00%    100.00% # Request fanout histogram
system.membus.snoop_fanout::1                       0      0.00%    100.00% # Request fanout histogram
system.membus.snoop_fanout::overflows               0      0.00%    100.00% # Request fanout histogram
system.membus.snoop_fanout::min_value               0                       # Request fanout histogram
system.membus.snoop_fanout::max_value               0                       # Request fanout histogram
system.membus.snoop_fanout::total            13414876                       # Request fanout histogram
system.membus.reqLayer2.occupancy         72143353162                       # Layer occupancy (ticks)
system.membus.reqLayer2.utilization               5.6                       # Layer utilization (%)
system.membus.respLayer1.occupancy        71955666567                       # Layer occupancy (ticks)
system.membus.respLayer1.utilization              5.6                       # Layer utilization (%)
system.switch_cpus.pwrStateResidencyTicks::OFF 2254743670000                       # Cumulative time (in ticks) in various power states
system.switch_cpus.dtb.walker.pwrStateResidencyTicks::UNDEFINED 2254743670000                       # Cumulative time (in ticks) in various power states
system.switch_cpus.itb.walker.pwrStateResidencyTicks::UNDEFINED 2254743670000                       # Cumulative time (in ticks) in various power states
system.tol2bus.pwrStateResidencyTicks::UNDEFINED 2254743670000                       # Cumulative time (in ticks) in various power states
system.tol2bus.trans_dist::ReadResp           3050578                       # Transaction distribution
system.tol2bus.trans_dist::WritebackDirty     27439281                       # Transaction distribution
system.tol2bus.trans_dist::CleanEvict         6102526                       # Transaction distribution
system.tol2bus.trans_dist::ReadExReq         17074067                       # Transaction distribution
system.tol2bus.trans_dist::ReadExResp        17074067                       # Transaction distribution
system.tol2bus.trans_dist::ReadSharedReq      3050578                       # Transaction distribution
system.tol2bus.pkt_count_system.cpu.dcache.mem_side::system.l2.cpu_side     60373935                       # Packet count per connected master and slave (bytes)
system.tol2bus.pkt_count::total              60373935                       # Packet count per connected master and slave (bytes)
system.tol2bus.pkt_size_system.cpu.dcache.mem_side::system.l2.cpu_side   2380717632                       # Cumulative packet size per connected master and slave (bytes)
system.tol2bus.pkt_size::total             2380717632                       # Cumulative packet size per connected master and slave (bytes)
system.tol2bus.snoops                        13417162                       # Total snoops (count)
system.tol2bus.snoopTraffic                 663373632                       # Total snoop traffic (bytes)
system.tol2bus.snoop_fanout::samples         33545490                       # Request fanout histogram
system.tol2bus.snoop_fanout::mean            0.000110                       # Request fanout histogram
system.tol2bus.snoop_fanout::stdev           0.010478                       # Request fanout histogram
system.tol2bus.snoop_fanout::underflows             0      0.00%      0.00% # Request fanout histogram
system.tol2bus.snoop_fanout::0               33541807     99.99%     99.99% # Request fanout histogram
system.tol2bus.snoop_fanout::1                   3683      0.01%    100.00% # Request fanout histogram
system.tol2bus.snoop_fanout::2                      0      0.00%    100.00% # Request fanout histogram
system.tol2bus.snoop_fanout::3                      0      0.00%    100.00% # Request fanout histogram
system.tol2bus.snoop_fanout::4                      0      0.00%    100.00% # Request fanout histogram
system.tol2bus.snoop_fanout::overflows              0      0.00%    100.00% # Request fanout histogram
system.tol2bus.snoop_fanout::min_value              0                       # Request fanout histogram
system.tol2bus.snoop_fanout::max_value              1                       # Request fanout histogram
system.tol2bus.snoop_fanout::total           33545490                       # Request fanout histogram
system.tol2bus.reqLayer0.occupancy        37202392317                       # Layer occupancy (ticks)
system.tol2bus.reqLayer0.utilization              2.9                       # Layer utilization (%)
system.tol2bus.respLayer1.occupancy       30186967500                       # Layer occupancy (ticks)
system.tol2bus.respLayer1.utilization             2.4                       # Layer utilization (%)
system.voltage_domain.voltage                       1                       # Voltage in Volts
system.clk_domain.clock                          1000                       # Clock period in ticks
system.l2.pwrStateResidencyTicks::UNDEFINED 2254743670000                       # Cumulative time (in ticks) in various power states
system.l2.demand_hits::.switch_cpus.data      6709769                       # number of demand (read+write) hits
system.l2.demand_hits::total                  6709769                       # number of demand (read+write) hits
system.l2.overall_hits::.switch_cpus.data      6709769                       # number of overall hits
system.l2.overall_hits::total                 6709769                       # number of overall hits
system.l2.demand_misses::.switch_cpus.data     13414876                       # number of demand (read+write) misses
system.l2.demand_misses::total               13414876                       # number of demand (read+write) misses
system.l2.overall_misses::.switch_cpus.data     13414876                       # number of overall misses
system.l2.overall_misses::total              13414876                       # number of overall misses
system.l2.demand_miss_latency::.switch_cpus.data 1098143737838                       # number of demand (read+write) miss cycles
system.l2.demand_miss_latency::total     1098143737838                       # number of demand (read+write) miss cycles
system.l2.overall_miss_latency::.switch_cpus.data 1098143737838                       # number of overall miss cycles
system.l2.overall_miss_latency::total    1098143737838                       # number of overall miss cycles
system.l2.demand_accesses::.switch_cpus.data     20124645                       # number of demand (read+write) accesses
system.l2.demand_accesses::total             20124645                       # number of demand (read+write) accesses
system.l2.overall_accesses::.switch_cpus.data     20124645                       # number of overall (read+write) accesses
system.l2.overall_accesses::total            20124645                       # number of overall (read+write) accesses
system.l2.demand_miss_rate::.switch_cpus.data     0.666589                       # miss rate for demand accesses
system.l2.demand_miss_rate::total            0.666589                       # miss rate for demand accesses
system.l2.overall_miss_rate::.switch_cpus.data     0.666589                       # miss rate for overall accesses
system.l2.overall_miss_rate::total           0.666589                       # miss rate for overall accesses
system.l2.demand_avg_miss_latency::.switch_cpus.data 81860.148229                       # average overall miss latency
system.l2.demand_avg_miss_latency::total 81860.148229                       # average overall miss latency
system.l2.overall_avg_miss_latency::.switch_cpus.data 81860.148229                       # average overall miss latency
system.l2.overall_avg_miss_latency::total 81860.148229                       # average overall miss latency
system.l2.blocked_cycles::no_mshrs         1927987798                       # number of cycles access was blocked
system.l2.blocked_cycles::no_targets                0                       # number of cycles access was blocked
system.l2.blocked::no_mshrs                  13414876                       # number of cycles access was blocked
system.l2.blocked::no_targets                       0                       # number of cycles access was blocked
system.l2.avg_blocked_cycles::no_mshrs     143.720136                       # average number of cycles each access was blocked
system.l2.avg_blocked_cycles::no_targets          nan                       # average number of cycles each access was blocked
system.l2.writebacks::.writebacks            10365213                       # number of writebacks
system.l2.writebacks::total                  10365213                       # number of writebacks
system.l2.demand_mshr_misses::.switch_cpus.data     13414876                       # number of demand (read+write) MSHR misses
system.l2.demand_mshr_misses::total          13414876                       # number of demand (read+write) MSHR misses
system.l2.overall_mshr_misses::.switch_cpus.data     13414876                       # number of overall MSHR misses
system.l2.overall_mshr_misses::total         13414876                       # number of overall MSHR misses
system.l2.demand_mshr_miss_latency::.switch_cpus.data 963994977838                       # number of demand (read+write) MSHR miss cycles
system.l2.demand_mshr_miss_latency::total 963994977838                       # number of demand (read+write) MSHR miss cycles
system.l2.overall_mshr_miss_latency::.switch_cpus.data 963994977838                       # number of overall MSHR miss cycles
system.l2.overall_mshr_miss_latency::total 963994977838                       # number of overall MSHR miss cycles
system.l2.demand_mshr_miss_rate::.switch_cpus.data     0.666589                       # mshr miss rate for demand accesses
system.l2.demand_mshr_miss_rate::total       0.666589                       # mshr miss rate for demand accesses
system.l2.overall_mshr_miss_rate::.switch_cpus.data     0.666589                       # mshr miss rate for overall accesses
system.l2.overall_mshr_miss_rate::total      0.666589                       # mshr miss rate for overall accesses
system.l2.demand_avg_mshr_miss_latency::.switch_cpus.data 71860.148229                       # average overall mshr miss latency
system.l2.demand_avg_mshr_miss_latency::total 71860.148229                       # average overall mshr miss latency
system.l2.overall_avg_mshr_miss_latency::.switch_cpus.data 71860.148229                       # average overall mshr miss latency
system.l2.overall_avg_mshr_miss_latency::total 71860.148229                       # average overall mshr miss latency
system.l2.replacements                       13417162                       # number of replacements
system.l2.WritebackDirty_hits::.writebacks     17074068                       # number of WritebackDirty hits
system.l2.WritebackDirty_hits::total         17074068                       # number of WritebackDirty hits
system.l2.WritebackDirty_accesses::.writebacks     17074068                       # number of WritebackDirty accesses(hits+misses)
system.l2.WritebackDirty_accesses::total     17074068                       # number of WritebackDirty accesses(hits+misses)
system.l2.CleanEvict_mshr_misses::.writebacks         1397                       # number of CleanEvict MSHR misses
system.l2.CleanEvict_mshr_misses::total          1397                       # number of CleanEvict MSHR misses
system.l2.CleanEvict_mshr_miss_rate::.writebacks          inf                       # mshr miss rate for CleanEvict accesses
system.l2.CleanEvict_mshr_miss_rate::total          inf                       # mshr miss rate for CleanEvict accesses
system.l2.ReadExReq_hits::.switch_cpus.data      6708847                       # number of ReadExReq hits
system.l2.ReadExReq_hits::total               6708847                       # number of ReadExReq hits
system.l2.ReadExReq_misses::.switch_cpus.data     10365220                       # number of ReadExReq misses
system.l2.ReadExReq_misses::total            10365220                       # number of ReadExReq misses
system.l2.ReadExReq_miss_latency::.switch_cpus.data 845334129226                       # number of ReadExReq miss cycles
system.l2.ReadExReq_miss_latency::total  845334129226                       # number of ReadExReq miss cycles
system.l2.ReadExReq_accesses::.switch_cpus.data     17074067                       # number of ReadExReq accesses(hits+misses)
system.l2.ReadExReq_accesses::total          17074067                       # number of ReadExReq accesses(hits+misses)
system.l2.ReadExReq_miss_rate::.switch_cpus.data     0.607074                       # miss rate for ReadExReq accesses
system.l2.ReadExReq_miss_rate::total         0.607074                       # miss rate for ReadExReq accesses
system.l2.ReadExReq_avg_miss_latency::.switch_cpus.data 81554.866103                       # average ReadExReq miss latency
system.l2.ReadExReq_avg_miss_latency::total 81554.866103                       # average ReadExReq miss latency
system.l2.ReadExReq_mshr_misses::.switch_cpus.data     10365220                       # number of ReadExReq MSHR misses
system.l2.ReadExReq_mshr_misses::total       10365220                       # number of ReadExReq MSHR misses
system.l2.ReadExReq_mshr_miss_latency::.switch_cpus.data 741681929226                       # number of ReadExReq MSHR miss cycles
system.l2.ReadExReq_mshr_miss_latency::total 741681929226                       # number of ReadExReq MSHR miss cycles
system.l2.ReadExReq_mshr_miss_rate::.switch_cpus.data     0.607074                       # mshr miss rate for ReadExReq accesses
system.l2.ReadExReq_mshr_miss_rate::total     0.607074                       # mshr miss rate for ReadExReq accesses
system.l2.ReadExReq_avg_mshr_miss_latency::.switch_cpus.data 71554.866103                       # average ReadExReq mshr miss latency
system.l2.ReadExReq_avg_mshr_miss_latency::total 71554.866103                       # average ReadExReq mshr miss latency
system.l2.ReadSharedReq_hits::.switch_cpus.data          922                       # number of ReadSharedReq hits
system.l2.ReadSharedReq_hits::total               922                       # number of ReadSharedReq hits
system.l2.ReadSharedReq_misses::.switch_cpus.data      3049656                       # number of ReadSharedReq misses
system.l2.ReadSharedReq_misses::total         3049656                       # number of ReadSharedReq misses
system.l2.ReadSharedReq_miss_latency::.switch_cpus.data 252809608612                       # number of ReadSharedReq miss cycles
system.l2.ReadSharedReq_miss_latency::total 252809608612                       # number of ReadSharedReq miss cycles
system.l2.ReadSharedReq_accesses::.switch_cpus.data      3050578                       # number of ReadSharedReq accesses(hits+misses)
system.l2.ReadSharedReq_accesses::total       3050578                       # number of ReadSharedReq accesses(hits+misses)
system.l2.ReadSharedReq_miss_rate::.switch_cpus.data     0.999698                       # miss rate for ReadSharedReq accesses
system.l2.ReadSharedReq_miss_rate::total     0.999698                       # miss rate for ReadSharedReq accesses
system.l2.ReadSharedReq_avg_miss_latency::.switch_cpus.data 82897.746045                       # average ReadSharedReq miss latency
system.l2.ReadSharedReq_avg_miss_latency::total 82897.746045                       # average ReadSharedReq miss latency
system.l2.ReadSharedReq_mshr_misses::.switch_cpus.data      3049656                       # number of ReadSharedReq MSHR misses
system.l2.ReadSharedReq_mshr_misses::total      3049656                       # number of ReadSharedReq MSHR misses
system.l2.ReadSharedReq_mshr_miss_latency::.switch_cpus.data 222313048612                       # number of ReadSharedReq MSHR miss cycles
system.l2.ReadSharedReq_mshr_miss_latency::total 222313048612                       # number of ReadSharedReq MSHR miss cycles
system.l2.ReadSharedReq_mshr_miss_rate::.switch_cpus.data     0.999698                       # mshr miss rate for ReadSharedReq accesses
system.l2.ReadSharedReq_mshr_miss_rate::total     0.999698                       # mshr miss rate for ReadSharedReq accesses
system.l2.ReadSharedReq_avg_mshr_miss_latency::.switch_cpus.data 72897.746045                       # average ReadSharedReq mshr miss latency
system.l2.ReadSharedReq_avg_mshr_miss_latency::total 72897.746045                       # average ReadSharedReq mshr miss latency
system.l2.tags.pwrStateResidencyTicks::UNDEFINED 2254743670000                       # Cumulative time (in ticks) in various power states
system.l2.tags.tagsinuse                         2048                       # Cycle average of tags in use
system.l2.tags.total_refs                    40247877                       # Total number of references to valid blocks.
system.l2.tags.sampled_refs                  13417162                       # Sample count of references to valid blocks.
system.l2.tags.avg_refs                      2.999731                       # Average number of references to valid blocks.
system.l2.tags.warmup_cycle                         0                       # Cycle when the warmup percentage was hit.
system.l2.tags.occ_blocks::.writebacks       0.319509                       # Average occupied blocks per requestor
system.l2.tags.occ_blocks::.cpu.data         0.186200                       # Average occupied blocks per requestor
system.l2.tags.occ_blocks::.switch_cpus.data  2047.494291                       # Average occupied blocks per requestor
system.l2.tags.occ_percent::.writebacks      0.000156                       # Average percentage of cache occupancy
system.l2.tags.occ_percent::.cpu.data        0.000091                       # Average percentage of cache occupancy
system.l2.tags.occ_percent::.switch_cpus.data     0.999753                       # Average percentage of cache occupancy
system.l2.tags.occ_percent::total                   1                       # Average percentage of cache occupancy
system.l2.tags.occ_task_id_blocks::1024          2048                       # Occupied blocks per task id
system.l2.tags.age_task_id_blocks_1024::0          105                       # Occupied blocks per task id
system.l2.tags.age_task_id_blocks_1024::1          936                       # Occupied blocks per task id
system.l2.tags.age_task_id_blocks_1024::2         1007                       # Occupied blocks per task id
system.l2.tags.occ_task_id_percent::1024            1                       # Percentage of cache occupancy per task id
system.l2.tags.tag_accesses                 657405802                       # Number of tag accesses
system.l2.tags.data_accesses                657405802                       # Number of data accesses
system.cpu_voltage_domain.voltage                   1                       # Voltage in Volts
system.mem_ctrls.pwrStateResidencyTicks::UNDEFINED 2254743670000                       # Cumulative time (in ticks) in various power states
system.mem_ctrls.bytes_read::.switch_cpus.data    858552064                       # Number of bytes read from this memory
system.mem_ctrls.bytes_read::total          858552064                       # Number of bytes read from this memory
system.mem_ctrls.bytes_written::.writebacks    663373632                       # Number of bytes written to this memory
system.mem_ctrls.bytes_written::total       663373632                       # Number of bytes written to this memory
system.mem_ctrls.num_reads::.switch_cpus.data     13414876                       # Number of read requests responded to by this memory
system.mem_ctrls.num_reads::total            13414876                       # Number of read requests responded to by this memory
system.mem_ctrls.num_writes::.writebacks     10365213                       # Number of write requests responded to by this memory
system.mem_ctrls.num_writes::total           10365213                       # Number of write requests responded to by this memory
system.mem_ctrls.bw_read::.switch_cpus.data    668942140                       # Total read bandwidth from this memory (bytes/s)
system.mem_ctrls.bw_read::total             668942140                       # Total read bandwidth from this memory (bytes/s)
system.mem_ctrls.bw_write::.writebacks      516868570                       # Write bandwidth from this memory (bytes/s)
system.mem_ctrls.bw_write::total            516868570                       # Write bandwidth from this memory (bytes/s)
system.mem_ctrls.bw_total::.writebacks      516868570                       # Total bandwidth to/from this memory (bytes/s)
system.mem_ctrls.bw_total::.switch_cpus.data    668942140                       # Total bandwidth to/from this memory (bytes/s)
system.mem_ctrls.bw_total::total           1185810710                       # Total bandwidth to/from this memory (bytes/s)
system.mem_ctrls.avgPriority_.writebacks::samples  10365213.00                       # Average QoS priority value for accepted requests
system.mem_ctrls.avgPriority_.switch_cpus.data::samples  13414873.00                       # Average QoS priority value for accepted requests
system.mem_ctrls.priorityMinLatency      0.000000018750                       # per QoS priority minimum request to response latency (s)
system.mem_ctrls.priorityMaxLatency      0.000065512500                       # per QoS priority maximum request to response latency (s)
system.mem_ctrls.numReadWriteTurnArounds       619270                       # Number of turnarounds from READ to WRITE
system.mem_ctrls.numWriteReadTurnArounds       619270                       # Number of turnarounds from WRITE to READ
system.mem_ctrls.numStayReadState            36969877                       # Number of times bus staying in READ state
system.mem_ctrls.numStayWriteState            9754294                       # Number of times bus staying in WRITE state
[...]
system.cpu.icache.tags.occ_task_id_blocks::1024          484                       # Occupied blocks per task id
system.cpu.icache.tags.age_task_id_blocks_1024::4          484                       # Occupied blocks per task id
system.cpu.icache.tags.occ_task_id_percent::1024     0.945312                       # Percentage of cache occupancy per task id
system.cpu.icache.tags.tag_accesses        6012116041                       # Number of tag accesses
system.cpu.icache.tags.data_accesses       6012116041                       # Number of data accesses
system.cpu.dtb.walker.pwrStateResidencyTicks::UNDEFINED 2254743670000                       # Cumulative time (in ticks) in various power states
system.cpu.interrupts.clk_domain.clock           8000                       # Clock period in ticks
system.cpu.itb_walker_cache.pwrStateResidencyTicks::UNDEFINED 2254743670000                       # Cumulative time (in ticks) in various power states
system.cpu.itb_walker_cache.blocked_cycles::no_mshrs            0                       # number of cycles access was blocked
system.cpu.itb_walker_cache.blocked_cycles::no_targets            0                       # number of cycles access was blocked
system.cpu.itb_walker_cache.blocked::no_mshrs            0                       # number of cycles access was blocked
system.cpu.itb_walker_cache.blocked::no_targets            0                       # number of cycles access was blocked
system.cpu.itb_walker_cache.avg_blocked_cycles::no_mshrs          nan                       # average number of cycles each access was blocked
system.cpu.itb_walker_cache.avg_blocked_cycles::no_targets          nan                       # average number of cycles each access was blocked
system.cpu.itb_walker_cache.replacements            0                       # number of replacements
system.cpu.itb_walker_cache.tags.pwrStateResidencyTicks::UNDEFINED 2254743670000                       # Cumulative time (in ticks) in various power states
system.cpu.itb_walker_cache.tags.tagsinuse            0                       # Cycle average of tags in use
system.cpu.itb_walker_cache.tags.total_refs            0                       # Total number of references to valid blocks.
system.cpu.itb_walker_cache.tags.sampled_refs            0                       # Sample count of references to valid blocks.
system.cpu.itb_walker_cache.tags.avg_refs          nan                       # Average number of references to valid blocks.
system.cpu.itb_walker_cache.tags.warmup_cycle            0                       # Cycle when the warmup percentage was hit.
system.cpu.itb_walker_cache.tags.tag_accesses            0                       # Number of tag accesses
system.cpu.itb_walker_cache.tags.data_accesses            0                       # Number of data accesses
system.cpu.itb.walker.pwrStateResidencyTicks::UNDEFINED 2254743670000                       # Cumulative time (in ticks) in various power states
system.cpu.dtb_walker_cache.pwrStateResidencyTicks::UNDEFINED 2254743670000                       # Cumulative time (in ticks) in various power states
system.cpu.dtb_walker_cache.blocked_cycles::no_mshrs            0                       # number of cycles access was blocked
system.cpu.dtb_walker_cache.blocked_cycles::no_targets            0                       # number of cycles access was blocked
system.cpu.dtb_walker_cache.blocked::no_mshrs            0                       # number of cycles access was blocked
system.cpu.dtb_walker_cache.blocked::no_targets            0                       # number of cycles access was blocked
system.cpu.dtb_walker_cache.avg_blocked_cycles::no_mshrs          nan                       # average number of cycles each access was blocked
system.cpu.dtb_walker_cache.avg_blocked_cycles::no_targets          nan                       # average number of cycles each access was blocked
system.cpu.dtb_walker_cache.replacements            0                       # number of replacements
system.cpu.dtb_walker_cache.tags.pwrStateResidencyTicks::UNDEFINED 2254743670000                       # Cumulative time (in ticks) in various power states
system.cpu.dtb_walker_cache.tags.tagsinuse            0                       # Cycle average of tags in use
system.cpu.dtb_walker_cache.tags.total_refs            0                       # Total number of references to valid blocks.
system.cpu.dtb_walker_cache.tags.sampled_refs            0                       # Sample count of references to valid blocks.
system.cpu.dtb_walker_cache.tags.avg_refs          nan                       # Average number of references to valid blocks.
system.cpu.dtb_walker_cache.tags.warmup_cycle            0                       # Cycle when the warmup percentage was hit.
system.cpu.dtb_walker_cache.tags.tag_accesses            0                       # Number of tag accesses
system.cpu.dtb_walker_cache.tags.data_accesses            0                       # Number of data accesses
system.cpu.dcache.pwrStateResidencyTicks::UNDEFINED 2254743670000                       # Cumulative time (in ticks) in various power states
system.cpu.dcache.demand_hits::.cpu.data    365233061                       # number of demand (read+write) hits
system.cpu.dcache.demand_hits::.switch_cpus.data    130592752                       # number of demand (read+write) hits
system.cpu.dcache.demand_hits::total        495825813                       # number of demand (read+write) hits
system.cpu.dcache.overall_hits::.cpu.data    365233061                       # number of overall hits
system.cpu.dcache.overall_hits::.switch_cpus.data    130592752                       # number of overall hits
system.cpu.dcache.overall_hits::total       495825813                       # number of overall hits
system.cpu.dcache.demand_misses::.cpu.data     39103960                       # number of demand (read+write) misses
system.cpu.dcache.demand_misses::.switch_cpus.data     20124645                       # number of demand (read+write) misses
system.cpu.dcache.demand_misses::total       59228605                       # number of demand (read+write) misses
system.cpu.dcache.overall_misses::.cpu.data     39103960                       # number of overall misses
system.cpu.dcache.overall_misses::.switch_cpus.data     20124645                       # number of overall misses
system.cpu.dcache.overall_misses::total      59228605                       # number of overall misses
system.cpu.dcache.demand_miss_latency::.switch_cpus.data 1227538724235                       # number of demand (read+write) miss cycles
system.cpu.dcache.demand_miss_latency::total 1227538724235                       # number of demand (read+write) miss cycles
system.cpu.dcache.overall_miss_latency::.switch_cpus.data 1227538724235                       # number of overall miss cycles
system.cpu.dcache.overall_miss_latency::total 1227538724235                       # number of overall miss cycles
system.cpu.dcache.demand_accesses::.cpu.data    404337021                       # number of demand (read+write) accesses
system.cpu.dcache.demand_accesses::.switch_cpus.data    150717397                       # number of demand (read+write) accesses
system.cpu.dcache.demand_accesses::total    555054418                       # number of demand (read+write) accesses
system.cpu.dcache.overall_accesses::.cpu.data    404337021                       # number of overall (read+write) accesses
system.cpu.dcache.overall_accesses::.switch_cpus.data    150717397                       # number of overall (read+write) accesses
system.cpu.dcache.overall_accesses::total    555054418                       # number of overall (read+write) accesses
system.cpu.dcache.demand_miss_rate::.cpu.data     0.096711                       # miss rate for demand accesses
system.cpu.dcache.demand_miss_rate::.switch_cpus.data     0.133526                       # miss rate for demand accesses
system.cpu.dcache.demand_miss_rate::total     0.106708                       # miss rate for demand accesses
system.cpu.dcache.overall_miss_rate::.cpu.data     0.096711                       # miss rate for overall accesses
system.cpu.dcache.overall_miss_rate::.switch_cpus.data     0.133526                       # miss rate for overall accesses
system.cpu.dcache.overall_miss_rate::total     0.106708                       # miss rate for overall accesses
system.cpu.dcache.demand_avg_miss_latency::.switch_cpus.data 60996.788974                       # average overall miss latency
system.cpu.dcache.demand_avg_miss_latency::total 20725.437046                       # average overall miss latency
system.cpu.dcache.overall_avg_miss_latency::.switch_cpus.data 60996.788974                       # average overall miss latency
system.cpu.dcache.overall_avg_miss_latency::total 20725.437046                       # average overall miss latency
system.cpu.dcache.blocked_cycles::no_mshrs   2412391776                       # number of cycles access was blocked
system.cpu.dcache.blocked_cycles::no_targets            0                       # number of cycles access was blocked
system.cpu.dcache.blocked::no_mshrs          20124645                       # number of cycles access was blocked
system.cpu.dcache.blocked::no_targets               0                       # number of cycles access was blocked
system.cpu.dcache.avg_blocked_cycles::no_mshrs   119.872513                       # average number of cycles each access was blocked
system.cpu.dcache.avg_blocked_cycles::no_targets          nan                       # average number of cycles each access was blocked
system.cpu.dcache.writebacks::.writebacks     48538221                       # number of writebacks
system.cpu.dcache.writebacks::total          48538221                       # number of writebacks
system.cpu.dcache.demand_mshr_misses::.switch_cpus.data     20124645                       # number of demand (read+write) MSHR misses
system.cpu.dcache.demand_mshr_misses::total     20124645                       # number of demand (read+write) MSHR misses
system.cpu.dcache.overall_mshr_misses::.switch_cpus.data     20124645                       # number of overall MSHR misses
system.cpu.dcache.overall_mshr_misses::total     20124645                       # number of overall MSHR misses
system.cpu.dcache.demand_mshr_miss_latency::.switch_cpus.data 1207414079235                       # number of demand (read+write) MSHR miss cycles
system.cpu.dcache.demand_mshr_miss_latency::total 1207414079235                       # number of demand (read+write) MSHR miss cycles
system.cpu.dcache.overall_mshr_miss_latency::.switch_cpus.data 1207414079235                       # number of overall MSHR miss cycles
system.cpu.dcache.overall_mshr_miss_latency::total 1207414079235                       # number of overall MSHR miss cycles
system.cpu.dcache.demand_mshr_miss_rate::.switch_cpus.data     0.133526                       # mshr miss rate for demand accesses
system.cpu.dcache.demand_mshr_miss_rate::total     0.036257                       # mshr miss rate for demand accesses
system.cpu.dcache.overall_mshr_miss_rate::.switch_cpus.data     0.133526                       # mshr miss rate for overall accesses
system.cpu.dcache.overall_mshr_miss_rate::total     0.036257                       # mshr miss rate for overall accesses
system.cpu.dcache.demand_avg_mshr_miss_latency::.switch_cpus.data 59996.788974                       # average overall mshr miss latency
system.cpu.dcache.demand_avg_mshr_miss_latency::total 59996.788974                       # average overall mshr miss latency
system.cpu.dcache.overall_avg_mshr_miss_latency::.switch_cpus.data 59996.788974                       # average overall mshr miss latency
system.cpu.dcache.overall_avg_mshr_miss_latency::total 59996.788974                       # average overall mshr miss latency
system.cpu.dcache.replacements               59228093                       # number of replacements
system.cpu.dcache.ReadReq_hits::.cpu.data    227106126                       # number of ReadReq hits
system.cpu.dcache.ReadReq_hits::.switch_cpus.data     79732071                       # number of ReadReq hits
system.cpu.dcache.ReadReq_hits::total       306838197                       # number of ReadReq hits
system.cpu.dcache.ReadReq_misses::.cpu.data      7904899                       # number of ReadReq misses
system.cpu.dcache.ReadReq_misses::.switch_cpus.data      3050578                       # number of ReadReq misses
system.cpu.dcache.ReadReq_misses::total      10955477                       # number of ReadReq misses
system.cpu.dcache.ReadReq_miss_latency::.switch_cpus.data 261663821500                       # number of ReadReq miss cycles
system.cpu.dcache.ReadReq_miss_latency::total 261663821500                       # number of ReadReq miss cycles
system.cpu.dcache.ReadReq_accesses::.cpu.data    235011025                       # number of ReadReq accesses(hits+misses)
system.cpu.dcache.ReadReq_accesses::.switch_cpus.data     82782649                       # number of ReadReq accesses(hits+misses)
system.cpu.dcache.ReadReq_accesses::total    317793674                       # number of ReadReq accesses(hits+misses)
system.cpu.dcache.ReadReq_miss_rate::.cpu.data     0.033636                       # miss rate for ReadReq accesses
system.cpu.dcache.ReadReq_miss_rate::.switch_cpus.data     0.036850                       # miss rate for ReadReq accesses
system.cpu.dcache.ReadReq_miss_rate::total     0.034474                       # miss rate for ReadReq accesses
system.cpu.dcache.ReadReq_avg_miss_latency::.switch_cpus.data 85775.161789                       # average ReadReq miss latency
system.cpu.dcache.ReadReq_avg_miss_latency::total 23884.292898                       # average ReadReq miss latency
system.cpu.dcache.ReadReq_mshr_misses::.switch_cpus.data      3050578                       # number of ReadReq MSHR misses
system.cpu.dcache.ReadReq_mshr_misses::total      3050578                       # number of ReadReq MSHR misses
system.cpu.dcache.ReadReq_mshr_miss_latency::.switch_cpus.data 258613243500                       # number of ReadReq MSHR miss cycles
system.cpu.dcache.ReadReq_mshr_miss_latency::total 258613243500                       # number of ReadReq MSHR miss cycles
system.cpu.dcache.ReadReq_mshr_miss_rate::.switch_cpus.data     0.036850                       # mshr miss rate for ReadReq accesses
system.cpu.dcache.ReadReq_mshr_miss_rate::total     0.009599                       # mshr miss rate for ReadReq accesses
system.cpu.dcache.ReadReq_avg_mshr_miss_latency::.switch_cpus.data 84775.161789                       # average ReadReq mshr miss latency
system.cpu.dcache.ReadReq_avg_mshr_miss_latency::total 84775.161789                       # average ReadReq mshr miss latency
system.cpu.dcache.WriteReq_hits::.cpu.data    138126935                       # number of WriteReq hits
system.cpu.dcache.WriteReq_hits::.switch_cpus.data     50860681                       # number of WriteReq hits
system.cpu.dcache.WriteReq_hits::total      188987616                       # number of WriteReq hits
system.cpu.dcache.WriteReq_misses::.cpu.data     31199061                       # number of WriteReq misses
system.cpu.dcache.WriteReq_misses::.switch_cpus.data     17074067                       # number of WriteReq misses
system.cpu.dcache.WriteReq_misses::total     48273128                       # number of WriteReq misses
system.cpu.dcache.WriteReq_miss_latency::.switch_cpus.data 965874902735                       # number of WriteReq miss cycles
system.cpu.dcache.WriteReq_miss_latency::total 965874902735                       # number of WriteReq miss cycles
system.cpu.dcache.WriteReq_accesses::.cpu.data    169325996                       # number of WriteReq accesses(hits+misses)
system.cpu.dcache.WriteReq_accesses::.switch_cpus.data     67934748                       # number of WriteReq accesses(hits+misses)
system.cpu.dcache.WriteReq_accesses::total    237260744                       # number of WriteReq accesses(hits+misses)
system.cpu.dcache.WriteReq_miss_rate::.cpu.data     0.184254                       # miss rate for WriteReq accesses
system.cpu.dcache.WriteReq_miss_rate::.switch_cpus.data     0.251330                       # miss rate for WriteReq accesses
system.cpu.dcache.WriteReq_miss_rate::total     0.203460                       # miss rate for WriteReq accesses
system.cpu.dcache.WriteReq_avg_miss_latency::.switch_cpus.data 56569.703208                       # average WriteReq miss latency
system.cpu.dcache.WriteReq_avg_miss_latency::total 20008.541869                       # average WriteReq miss latency
system.cpu.dcache.WriteReq_mshr_misses::.switch_cpus.data     17074067                       # number of WriteReq MSHR misses
system.cpu.dcache.WriteReq_mshr_misses::total     17074067                       # number of WriteReq MSHR misses
system.cpu.dcache.WriteReq_mshr_miss_latency::.switch_cpus.data 948800835735                       # number of WriteReq MSHR miss cycles
system.cpu.dcache.WriteReq_mshr_miss_latency::total 948800835735                       # number of WriteReq MSHR miss cycles
system.cpu.dcache.WriteReq_mshr_miss_rate::.switch_cpus.data     0.251330                       # mshr miss rate for WriteReq accesses
system.cpu.dcache.WriteReq_mshr_miss_rate::total     0.071963                       # mshr miss rate for WriteReq accesses
system.cpu.dcache.WriteReq_avg_mshr_miss_latency::.switch_cpus.data 55569.703208                       # average WriteReq mshr miss latency
system.cpu.dcache.WriteReq_avg_mshr_miss_latency::total 55569.703208                       # average WriteReq mshr miss latency
system.cpu.dcache.tags.pwrStateResidencyTicks::UNDEFINED 2254743670000                       # Cumulative time (in ticks) in various power states
system.cpu.dcache.tags.tagsinuse           511.996592                       # Cycle average of tags in use
system.cpu.dcache.tags.total_refs           554786039                       # Total number of references to valid blocks.
system.cpu.dcache.tags.sampled_refs          59228093                       # Sample count of references to valid blocks.
system.cpu.dcache.tags.avg_refs              9.366941                       # Average number of references to valid blocks.
system.cpu.dcache.tags.warmup_cycle              1000                       # Cycle when the warmup percentage was hit.
system.cpu.dcache.tags.occ_blocks::.cpu.data   220.561939                       # Average occupied blocks per requestor
system.cpu.dcache.tags.occ_blocks::.switch_cpus.data   291.434653                       # Average occupied blocks per requestor
system.cpu.dcache.tags.occ_percent::.cpu.data     0.430785                       # Average percentage of cache occupancy
system.cpu.dcache.tags.occ_percent::.switch_cpus.data     0.569208                       # Average percentage of cache occupancy
system.cpu.dcache.tags.occ_percent::total     0.999993                       # Average percentage of cache occupancy
system.cpu.dcache.tags.occ_task_id_blocks::1024          512                       # Occupied blocks per task id
system.cpu.dcache.tags.age_task_id_blocks_1024::0          158                       # Occupied blocks per task id
system.cpu.dcache.tags.age_task_id_blocks_1024::1          346                       # Occupied blocks per task id
system.cpu.dcache.tags.age_task_id_blocks_1024::3            8                       # Occupied blocks per task id
system.cpu.dcache.tags.occ_task_id_percent::1024            1                       # Percentage of cache occupancy per task id
system.cpu.dcache.tags.tag_accesses        2279446277                       # Number of tag accesses
system.cpu.dcache.tags.data_accesses       2279446277                       # Number of data accesses

---------- End Simulation Statistics   ----------
