
---------- Begin Simulation Statistics ----------
final_tick                               2796095523000                       # Number of ticks from beginning of simulation (restored from checkpoints and never reset)
host_inst_rate                                 231977                       # Simulator instruction rate (inst/s)
host_mem_usage                                4390644                       # Number of bytes of host memory used
host_op_rate                                   337672                       # Simulator op (including micro ops) rate (op/s)
host_seconds                                  6466.17                       # Real time elapsed on the host
host_tick_rate                              282207072                       # Simulator tick rate (ticks/s)
sim_freq                                 1000000000000                       # Frequency of simulated ticks
sim_insts                                  1500000001                       # Number of instructions simulated
sim_ops                                    2183444510                       # Number of ops (including micro ops) simulated
sim_seconds                                  1.824799                       # Number of seconds simulated
sim_ticks                                1824799272500                       # Number of ticks simulated
system.cpu.committedInsts                           0                       # Number of instructions committed
system.cpu.committedOps                             0                       # Number of ops (including micro ops) committed
system.cpu.dtb.rdAccesses                           0                       # TLB accesses on read requests
system.cpu.dtb.rdMisses                             0                       # TLB misses on read requests
system.cpu.dtb.wrAccesses                           0                       # TLB accesses on write requests
system.cpu.dtb.wrMisses                             0                       # TLB misses on write requests
system.cpu.idle_fraction                            0                       # Percentage of idle cycles
system.cpu.itb.rdAccesses                           0                       # TLB accesses on read requests
system.cpu.itb.rdMisses                             0                       # TLB misses on read requests
system.cpu.itb.wrAccesses                           0                       # TLB accesses on write requests
system.cpu.itb.wrMisses                             0                       # TLB misses on write requests
system.cpu.not_idle_fraction                        1                       # Percentage of non-idle cycles
system.cpu.numCycles                                0                       # number of cpu cycles simulated
system.cpu.numWorkItemsCompleted                    0                       # number of work items this cpu completed
system.cpu.numWorkItemsStarted                      0                       # number of work items this cpu started
system.cpu.num_busy_cycles                          0                       # Number of busy cycles
system.cpu.num_conditional_control_insts            0                       # number of instructions that are conditional controls
system.cpu.num_fp_alu_accesses                      0                       # Number of float alu accesses
system.cpu.num_fp_insts                             0                       # number of float instructions
system.cpu.num_fp_register_reads                    0                       # number of times the floating registers were read
system.cpu.num_fp_register_writes                   0                       # number of times the floating registers were written
system.cpu.num_func_calls                           0                       # number of times a function call or return occured
system.cpu.num_idle_cycles                          0                       # Number of idle cycles
system.cpu.num_int_alu_accesses                     0                       # Number of integer alu accesses
system.cpu.num_int_insts                            0                       # number of integer instructions
system.cpu.num_int_register_reads                   0                       # number of times the integer registers were read
system.cpu.num_int_register_writes                  0                       # number of times the integer registers were written
system.cpu.num_load_insts                           0                       # Number of load instructions
system.cpu.num_mem_refs                             0                       # number of memory refs
system.cpu.num_store_insts                          0                       # Number of store instructions
system.cpu.num_vec_alu_accesses                     0                       # Number of vector alu accesses
system.cpu.num_vec_insts                            0                       # number of vector instructions
system.cpu.num_vec_register_reads                   0                       # number of times the vector registers were read
system.cpu.num_vec_register_writes                  0                       # number of times the vector registers were written
system.cpu.op_class::No_OpClass                     0                       # Class of executed instruction
system.cpu.op_class::IntAlu                         0                       # Class of executed instruction
system.cpu.op_class::IntMult                        0                       # Class of executed instruction
system.cpu.op_class::IntDiv                         0                       # Class of executed instruction
system.cpu.op_class::FloatAdd                       0                       # Class of executed instruction
system.cpu.op_class::FloatCmp                       0                       # Class of executed instruction
system.cpu.op_class::FloatCvt                       0                       # Class of executed instruction
system.cpu.op_class::FloatMult                      0                       # Class of executed instruction
system.cpu.op_class::FloatMultAcc                   0                       # Class of executed instruction
system.cpu.op_class::FloatDiv                       0                       # Class of executed instruction
system.cpu.op_class::FloatMisc                      0                       # Class of executed instruction
system.cpu.op_class::FloatSqrt                      0                       # Class of executed instruction
system.cpu.op_class::SimdAdd                        0                       # Class of executed instruction
system.cpu.op_class::SimdAddAcc                     0                       # Class of executed instruction
system.cpu.op_class::SimdAlu                        0                       # Class of executed instruction
system.cpu.op_class::SimdCmp                        0                       # Class of executed instruction
system.cpu.op_class::SimdCvt                        0                       # Class of executed instruction
system.cpu.op_class::SimdMisc                       0                       # Class of executed instruction
system.cpu.op_class::SimdMult                       0                       # Class of executed instruction
system.cpu.op_class::SimdMultAcc                    0                       # Class of executed instruction
system.cpu.op_class::SimdShift                      0                       # Class of executed instruction
system.cpu.op_class::SimdShiftAcc                   0                       # Class of executed instruction
system.cpu.op_class::SimdDiv                        0                       # Class of executed instruction
system.cpu.op_class::SimdSqrt                       0                       # Class of executed instruction
system.cpu.op_class::SimdFloatAdd                   0                       # Class of executed instruction
system.cpu.op_class::SimdFloatAlu                   0                       # Class of executed instruction
system.cpu.op_class::SimdFloatCmp                   0                       # Class of executed instruction
system.cpu.op_class::SimdFloatCvt                   0                       # Class of executed instruction
system.cpu.op_class::SimdFloatDiv                   0                       # Class of executed instruction
system.cpu.op_class::SimdFloatMisc                  0                       # Class of executed instruction
system.cpu.op_class::SimdFloatMult                  0                       # Class of executed instruction
system.cpu.op_class::SimdFloatMultAcc               0                       # Class of executed instruction
system.cpu.op_class::SimdFloatSqrt                  0                       # Class of executed instruction
system.cpu.op_class::SimdReduceAdd                  0                       # Class of executed instruction
system.cpu.op_class::SimdReduceAlu                  0                       # Class of executed instruction
system.cpu.op_class::SimdReduceCmp                  0                       # Class of executed instruction
system.cpu.op_class::SimdFloatReduceAdd             0                       # Class of executed instruction
system.cpu.op_class::SimdFloatReduceCmp             0                       # Class of executed instruction
system.cpu.op_class::SimdAes                        0                       # Class of executed instruction
system.cpu.op_class::SimdAesMix                     0                       # Class of executed instruction
system.cpu.op_class::SimdSha1Hash                   0                       # Class of executed instruction
system.cpu.op_class::SimdSha1Hash2                  0                       # Class of executed instruction
system.cpu.op_class::SimdSha256Hash                 0                       # Class of executed instruction
system.cpu.op_class::SimdSha256Hash2                0                       # Class of executed instruction
system.cpu.op_class::SimdShaSigma2                  0                       # Class of executed instruction
system.cpu.op_class::SimdShaSigma3                  0                       # Class of executed instruction
system.cpu.op_class::SimdPredAlu                    0                       # Class of executed instruction
system.cpu.op_class::MemRead                        0                       # Class of executed instruction
system.cpu.op_class::MemWrite                       0                       # Class of executed instruction
system.cpu.op_class::FloatMemRead                   0                       # Class of executed instruction
system.cpu.op_class::FloatMemWrite                  0                       # Class of executed instruction
system.cpu.op_class::IprAccess                      0                       # Class of executed instruction
system.cpu.op_class::InstPrefetch                   0                       # Class of executed instruction
system.cpu.op_class::total                          0                       # Class of executed instruction
system.cpu.workload.numSyscalls                     0                       # Number of system calls
system.membus.snoop_filter.hit_multi_requests            0                       # Number of requests hitting in the snoop filter with multiple (>1) holders of the requested data.
system.membus.snoop_filter.hit_multi_snoops            0                       # Number of snoops hitting in the snoop filter with multiple (>1) holders of the requested data.
system.membus.snoop_filter.hit_single_requests     20159569                       # Number of requests hitting in the snoop filter with a single holder of the requested data.
system.membus.snoop_filter.hit_single_snoops            0                       # Number of snoops hitting in the snoop filter with a single holder of the requested data.
system.membus.snoop_filter.tot_requests      40319138                       # Total number of requests made to the snoop filter.
system.membus.snoop_filter.tot_snoops               0                       # Total number of snoops made to the snoop filter.
system.switch_cpus.branchPred.BTBCorrect            0                       # Number of correct BTB predictions (this stat may not work properly.
system.switch_cpus.branchPred.BTBHitPct      0.000000                       # BTB Hit Percentage
system.switch_cpus.branchPred.BTBHits               0                       # Number of BTB hits
system.switch_cpus.branchPred.BTBLookups      1703370                       # Number of BTB lookups
system.switch_cpus.branchPred.RASInCorrect            1                       # Number of incorrect RAS predictions.
system.switch_cpus.branchPred.condIncorrect        15668                       # Number of conditional branches incorrect
system.switch_cpus.branchPred.condPredicted      3689612                       # Number of conditional branches predicted
system.switch_cpus.branchPred.indirectHits      1319481                       # Number of indirect target hits.
system.switch_cpus.branchPred.indirectLookups      1703370                       # Number of indirect predictor lookups.
system.switch_cpus.branchPred.indirectMisses       383889                       # Number of indirect misses.
system.switch_cpus.branchPred.lookups         3689745                       # Number of BP lookups
system.switch_cpus.branchPred.usedRAS              39                       # Number of times the RAS was used to get a target.
system.switch_cpus.branchPredindirectMispredicted           97                       # Number of mispredicted indirect branches.
system.switch_cpus.cc_regfile_reads          20144295                       # number of cc regfile reads
system.switch_cpus.cc_regfile_writes         12020960                       # number of cc regfile writes
system.switch_cpus.commit.amos                      0                       # Number of atomic instructions committed
system.switch_cpus.commit.branchMispredicts        15706                       # The number of times a branch was mispredicted
system.switch_cpus.commit.branches            3676346                       # Number of branches committed
system.switch_cpus.commit.bw_lim_events      37440052                       # number cycles where commit BW limit reached
system.switch_cpus.commit.commitSquashedInsts       768142                       # The number of squashed insts skipped by commit
system.switch_cpus.commit.committedInsts    500000001                       # Number of instructions committed
system.switch_cpus.commit.committedOps      700735521                       # Number of ops (including micro ops) committed
system.switch_cpus.commit.committed_per_cycle::samples   3649494325                       # Number of insts commited each cycle
system.switch_cpus.commit.committed_per_cycle::mean     0.192009                       # Number of insts commited each cycle
system.switch_cpus.commit.committed_per_cycle::stdev     1.004964                       # Number of insts commited each cycle
system.switch_cpus.commit.committed_per_cycle::underflows            0      0.00%      0.00% # Number of insts commited each cycle
system.switch_cpus.commit.committed_per_cycle::0   3444010115     94.37%     94.37% # Number of insts commited each cycle
system.switch_cpus.commit.committed_per_cycle::1     76820096      2.10%     96.47% # Number of insts commited each cycle
system.switch_cpus.commit.committed_per_cycle::2     27433543      0.75%     97.23% # Number of insts commited each cycle
system.switch_cpus.commit.committed_per_cycle::3     25027398      0.69%     97.91% # Number of insts commited each cycle
system.switch_cpus.commit.committed_per_cycle::4     13864425      0.38%     98.29% # Number of insts commited each cycle
system.switch_cpus.commit.committed_per_cycle::5     14734125      0.40%     98.70% # Number of insts commited each cycle
system.switch_cpus.commit.committed_per_cycle::6      5834597      0.16%     98.86% # Number of insts commited each cycle
system.switch_cpus.commit.committed_per_cycle::7      4329974      0.12%     98.97% # Number of insts commited each cycle
system.switch_cpus.commit.committed_per_cycle::8     37440052      1.03%    100.00% # Number of insts commited each cycle
system.switch_cpus.commit.committed_per_cycle::overflows            0      0.00%    100.00% # Number of insts commited each cycle
system.switch_cpus.commit.committed_per_cycle::min_value            0                       # Number of insts commited each cycle
system.switch_cpus.commit.committed_per_cycle::max_value            8                       # Number of insts commited each cycle
system.switch_cpus.commit.committed_per_cycle::total   3649494325                       # Number of insts commited each cycle
system.switch_cpus.commit.fp_insts          666097691                       # Number of committed floating point instructions.
system.switch_cpus.commit.function_calls            2                       # Number of function calls committed.
system.switch_cpus.commit.int_insts         227365428                       # Number of committed integer instructions.
system.switch_cpus.commit.loads             126270186                       # Number of loads committed
system.switch_cpus.commit.membars                   0                       # Number of memory barriers committed
system.switch_cpus.commit.op_class_0::No_OpClass            0      0.00%      0.00% # Class of committed instruction
system.switch_cpus.commit.op_class_0::IntAlu    137738657     19.66%     19.66% # Class of committed instruction
system.switch_cpus.commit.op_class_0::IntMult            0      0.00%     19.66% # Class of committed instruction
system.switch_cpus.commit.op_class_0::IntDiv            0      0.00%     19.66% # Class of committed instruction
system.switch_cpus.commit.op_class_0::FloatAdd     93713253     13.37%     33.03% # Class of committed instruction
system.switch_cpus.commit.op_class_0::FloatCmp            0      0.00%     33.03% # Class of committed instruction
system.switch_cpus.commit.op_class_0::FloatCvt            0      0.00%     33.03% # Class of committed instruction
system.switch_cpus.commit.op_class_0::FloatMult            0      0.00%     33.03% # Class of committed instruction
system.switch_cpus.commit.op_class_0::FloatMultAcc            0      0.00%     33.03% # Class of committed instruction
system.switch_cpus.commit.op_class_0::FloatDiv            0      0.00%     33.03% # Class of committed instruction
system.switch_cpus.commit.op_class_0::FloatMisc            0      0.00%     33.03% # Class of committed instruction
system.switch_cpus.commit.op_class_0::FloatSqrt            0      0.00%     33.03% # Class of committed instruction
system.switch_cpus.commit.op_class_0::SimdAdd            0      0.00%     33.03% # Class of committed instruction
system.switch_cpus.commit.op_class_0::SimdAddAcc            0      0.00%     33.03% # Class of committed instruction
system.switch_cpus.commit.op_class_0::SimdAlu        36864      0.01%     33.04% # Class of committed instruction
system.switch_cpus.commit.op_class_0::SimdCmp            0      0.00%     33.04% # Class of committed instruction
system.switch_cpus.commit.op_class_0::SimdCvt            0      0.00%     33.04% # Class of committed instruction
system.switch_cpus.commit.op_class_0::SimdMisc            0      0.00%     33.04% # Class of committed instruction
system.switch_cpus.commit.op_class_0::SimdMult            0      0.00%     33.04% # Class of committed instruction
system.switch_cpus.commit.op_class_0::SimdMultAcc            0      0.00%     33.04% # Class of committed instruction
system.switch_cpus.commit.op_class_0::SimdShift            0      0.00%     33.04% # Class of committed instruction
system.switch_cpus.commit.op_class_0::SimdShiftAcc            0      0.00%     33.04% # Class of committed instruction
system.switch_cpus.commit.op_class_0::SimdDiv            0      0.00%     33.04% # Class of committed instruction
system.switch_cpus.commit.op_class_0::SimdSqrt            0      0.00%     33.04% # Class of committed instruction
system.switch_cpus.commit.op_class_0::SimdFloatAdd    169178503     24.14%     57.18% # Class of committed instruction
system.switch_cpus.commit.op_class_0::SimdFloatAlu            0      0.00%     57.18% # Class of committed instruction
system.switch_cpus.commit.op_class_0::SimdFloatCmp            0      0.00%     57.18% # Class of committed instruction
system.switch_cpus.commit.op_class_0::SimdFloatCvt            0      0.00%     57.18% # Class of committed instruction
system.switch_cpus.commit.op_class_0::SimdFloatDiv      3302307      0.47%     57.65% # Class of committed instruction
system.switch_cpus.commit.op_class_0::SimdFloatMisc            0      0.00%     57.65% # Class of committed instruction
system.switch_cpus.commit.op_class_0::SimdFloatMult    102560975     14.64%     72.29% # Class of committed instruction
system.switch_cpus.commit.op_class_0::SimdFloatMultAcc            0      0.00%     72.29% # Class of committed instruction
system.switch_cpus.commit.op_class_0::SimdFloatSqrt            0      0.00%     72.29% # Class of committed instruction
system.switch_cpus.commit.op_class_0::SimdReduceAdd            0      0.00%     72.29% # Class of committed instruction
system.switch_cpus.commit.op_class_0::SimdReduceAlu            0      0.00%     72.29% # Class of committed instruction
system.switch_cpus.commit.op_class_0::SimdReduceCmp            0      0.00%     72.29% # Class of committed instruction
system.switch_cpus.commit.op_class_0::SimdFloatReduceAdd            0      0.00%     72.29% # Class of committed instruction
system.switch_cpus.commit.op_class_0::SimdFloatReduceCmp            0      0.00%     72.29% # Class of committed instruction
system.switch_cpus.commit.op_class_0::SimdAes            0      0.00%     72.29% # Class of committed instruction
system.switch_cpus.commit.op_class_0::SimdAesMix            0      0.00%     72.29% # Class of committed instruction
system.switch_cpus.commit.op_class_0::SimdSha1Hash            0      0.00%     72.29% # Class of committed instruction
system.switch_cpus.commit.op_class_0::SimdSha1Hash2            0      0.00%     72.29% # Class of committed instruction
system.switch_cpus.commit.op_class_0::SimdSha256Hash            0      0.00%     72.29% # Class of committed instruction
system.switch_cpus.commit.op_class_0::SimdSha256Hash2            0      0.00%     72.29% # Class of committed instruction
system.switch_cpus.commit.op_class_0::SimdShaSigma2            0      0.00%     72.29% # Class of committed instruction
system.switch_cpus.commit.op_class_0::SimdShaSigma3            0      0.00%     72.29% # Class of committed instruction
system.switch_cpus.commit.op_class_0::SimdPredAlu            0      0.00%     72.29% # Class of committed instruction
system.switch_cpus.commit.op_class_0::MemRead      1329902      0.19%     72.48% # Class of committed instruction
system.switch_cpus.commit.op_class_0::MemWrite       147460      0.02%     72.50% # Class of committed instruction
system.switch_cpus.commit.op_class_0::FloatMemRead    124940284     17.83%     90.33% # Class of committed instruction
system.switch_cpus.commit.op_class_0::FloatMemWrite     67787315      9.67%    100.00% # Class of committed instruction
system.switch_cpus.commit.op_class_0::IprAccess            0      0.00%    100.00% # Class of committed instruction
system.switch_cpus.commit.op_class_0::InstPrefetch            0      0.00%    100.00% # Class of committed instruction
system.switch_cpus.commit.op_class_0::total    700735520                       # Class of committed instruction
system.switch_cpus.commit.refs              194204961                       # Number of memory references committed
system.switch_cpus.commit.swp_count                 0                       # Number of s/w prefetches committed
system.switch_cpus.commit.vec_insts                 0                       # Number of committed Vector instructions.
system.switch_cpus.committedInsts           500000000                       # Number of Instructions Simulated
system.switch_cpus.committedOps             700735520                       # Number of Ops (including micro ops) Simulated
system.switch_cpus.cpi                       7.299197                       # CPI: Cycles Per Instruction
system.switch_cpus.cpi_total                 7.299197                       # CPI: Total CPI of All Threads
system.switch_cpus.decode.BlockedCycles    3463892638                       # Number of cycles decode is blocked
system.switch_cpus.decode.DecodedInsts      701593992                       # Number of instructions handled by decode
system.switch_cpus.decode.IdleCycles         10288328                       # Number of cycles decode is idle
system.switch_cpus.decode.RunCycles         151500213                       # Number of cycles decode is running
system.switch_cpus.decode.SquashCycles          17603                       # Number of cycles decode is squashing
system.switch_cpus.decode.UnblockCycles      23898417                       # Number of cycles decode is unblocking
system.switch_cpus.dtb.rdAccesses           126527439                       # TLB accesses on read requests
system.switch_cpus.dtb.rdMisses                 47636                       # TLB misses on read requests
system.switch_cpus.dtb.wrAccesses            67935363                       # TLB accesses on write requests
system.switch_cpus.dtb.wrMisses                142942                       # TLB misses on write requests
system.switch_cpus.fetch.Branches             3689745                       # Number of branches that fetch encountered
system.switch_cpus.fetch.CacheLines          43144071                       # Number of cache lines fetched
system.switch_cpus.fetch.Cycles            3606397926                       # Number of cycles fetch has run and was not squashing or blocked
system.switch_cpus.fetch.IcacheSquashes           298                       # Number of outstanding Icache misses that were squashed
system.switch_cpus.fetch.IcacheWaitRetryStallCycles          322                       # Number of stall cycles due to full MSHR
system.switch_cpus.fetch.Insts              501071097                       # Number of instructions fetch has processed
system.switch_cpus.fetch.MiscStallCycles           39                       # Number of cycles fetch has spent waiting on interrupts, or bad addresses, or out of MSHRs
system.switch_cpus.fetch.PendingTrapStallCycles        14656                       # Number of stall cycles due to pending traps
system.switch_cpus.fetch.SquashCycles           35206                       # Number of cycles fetch has spent squashing
system.switch_cpus.fetch.TlbCycles               5345                       # Number of cycles fetch has spent waiting for tlb
system.switch_cpus.fetch.branchRate          0.001011                       # Number of branch fetches per cycle
system.switch_cpus.fetch.icacheStallCycles     43161340                       # Number of cycles fetch is stalled on an Icache miss
system.switch_cpus.fetch.predictedBranches      1319520                       # Number of branches that fetch has predicted taken
system.switch_cpus.fetch.rate                0.137295                       # Number of inst fetches per cycle
system.switch_cpus.fetch.rateDist::samples   3649597231                       # Number of instructions fetched each cycle (Total)
system.switch_cpus.fetch.rateDist::mean      0.192426                       # Number of instructions fetched each cycle (Total)
system.switch_cpus.fetch.rateDist::stdev     1.075322                       # Number of instructions fetched each cycle (Total)
system.switch_cpus.fetch.rateDist::underflows            0      0.00%      0.00% # Number of instructions fetched each cycle (Total)
system.switch_cpus.fetch.rateDist::0       3511279900     96.21%     96.21% # Number of instructions fetched each cycle (Total)
system.switch_cpus.fetch.rateDist::1         11885627      0.33%     96.54% # Number of instructions fetched each cycle (Total)
system.switch_cpus.fetch.rateDist::2         11679278      0.32%     96.86% # Number of instructions fetched each cycle (Total)
system.switch_cpus.fetch.rateDist::3         10265366      0.28%     97.14% # Number of instructions fetched each cycle (Total)
system.switch_cpus.fetch.rateDist::4         36610380      1.00%     98.14% # Number of instructions fetched each cycle (Total)
system.switch_cpus.fetch.rateDist::5          9145465      0.25%     98.39% # Number of instructions fetched each cycle (Total)
system.switch_cpus.fetch.rateDist::6          8892216      0.24%     98.63% # Number of instructions fetched each cycle (Total)
system.switch_cpus.fetch.rateDist::7          7998595      0.22%     98.85% # Number of instructions fetched each cycle (Total)
system.switch_cpus.fetch.rateDist::8         41840404      1.15%    100.00% # Number of instructions fetched each cycle (Total)
system.switch_cpus.fetch.rateDist::overflows            0      0.00%    100.00% # Number of instructions fetched each cycle (Total)
system.switch_cpus.fetch.rateDist::min_value            0                       # Number of instructions fetched each cycle (Total)
system.switch_cpus.fetch.rateDist::max_value            8                       # Number of instructions fetched each cycle (Total)
system.switch_cpus.fetch.rateDist::total   3649597231                       # Number of instructions fetched each cycle (Total)
system.switch_cpus.fp_regfile_reads        1102152136                       # number of floating regfile reads
system.switch_cpus.fp_regfile_writes        598567096                       # number of floating regfile writes
system.switch_cpus.idleCycles                    1314                       # Total number of cycles that the CPU has spent unscheduled due to idling
system.switch_cpus.iew.branchMispredicts        15707                       # Number of branch mispredicts detected at execute
system.switch_cpus.iew.exec_branches          3676891                       # Number of branches executed
system.switch_cpus.iew.exec_nop                     0                       # number of nop insts executed
system.switch_cpus.iew.exec_rate             0.224496                       # Inst execution rate
system.switch_cpus.iew.exec_refs            312502656                       # number of memory reference insts executed
system.switch_cpus.iew.exec_stores           67935363                       # Number of stores executed
system.switch_cpus.iew.exec_swp                     0                       # number of swp insts executed
system.switch_cpus.iew.iewBlockCycles        83574647                       # Number of cycles IEW is blocking
system.switch_cpus.iew.iewDispLoadInsts     126527953                       # Number of dispatched load instructions
system.switch_cpus.iew.iewDispNonSpecInsts            0                       # Number of dispatched non-speculative instructions
system.switch_cpus.iew.iewDispSquashedInsts         2173                       # Number of squashed instructions skipped by dispatch
system.switch_cpus.iew.iewDispStoreInsts     68128234                       # Number of dispatched store instructions
system.switch_cpus.iew.iewDispatchedInsts    701499832                       # Number of instructions dispatched to IQ
system.switch_cpus.iew.iewExecLoadInsts     244567293                       # Number of load instructions executed
system.switch_cpus.iew.iewExecSquashedInsts        56027                       # Number of squashed instructions skipped in execute
system.switch_cpus.iew.iewExecutedInsts     819318648                       # Number of executed instructions
system.switch_cpus.iew.iewIQFullEvents         254764                       # Number of times the IQ has become full, causing a stall
system.switch_cpus.iew.iewIdleCycles                0                       # Number of cycles IEW is idle
system.switch_cpus.iew.iewLSQFullEvents     736077018                       # Number of times the LSQ has become full, causing a stall
system.switch_cpus.iew.iewSquashCycles          17603                       # Number of cycles IEW is squashing
system.switch_cpus.iew.iewUnblockCycles     736595376                       # Number of cycles IEW is unblocking
system.switch_cpus.iew.lsq.thread0.blockedLoads            0                       # Number of blocked loads due to partial load-store forwarding
system.switch_cpus.iew.lsq.thread0.cacheBlocked     11140643                       # Number of times an access to memory failed due to the cache being blocked
system.switch_cpus.iew.lsq.thread0.forwLoads     43755749                       # Number of loads that had data forwarded from stores
system.switch_cpus.iew.lsq.thread0.ignoredResponses            5                       # Number of memory responses ignored because the instruction is squashed
system.switch_cpus.iew.lsq.thread0.invAddrLoads            0                       # Number of loads ignored due to an invalid address
system.switch_cpus.iew.lsq.thread0.invAddrSwpfs            0                       # Number of software prefetches ignored due to an invalid address
system.switch_cpus.iew.lsq.thread0.memOrderViolation         3522                       # Number of memory ordering violations
system.switch_cpus.iew.lsq.thread0.rescheduledLoads            0                       # Number of loads that were rescheduled
system.switch_cpus.iew.lsq.thread0.squashedLoads       257762                       # Number of loads squashed
system.switch_cpus.iew.lsq.thread0.squashedStores       193456                       # Number of stores squashed
system.switch_cpus.iew.memOrderViolationEvents         3522                       # Number of memory order violations
system.switch_cpus.iew.predictedNotTakenIncorrect        14372                       # Number of branches that were predicted not taken incorrectly
system.switch_cpus.iew.predictedTakenIncorrect         1335                       # Number of branches that were predicted taken incorrectly
system.switch_cpus.iew.wb_consumers         769795108                       # num instructions consuming a value
system.switch_cpus.iew.wb_count             701023996                       # cumulative count of insts written-back
system.switch_cpus.iew.wb_fanout             0.582113                       # average fanout of values written-back
system.switch_cpus.iew.wb_producers         448107964                       # num instructions producing a value
system.switch_cpus.iew.wb_rate               0.192082                       # insts written-back per cycle
system.switch_cpus.iew.wb_sent              701024133                       # cumulative count of insts sent to commit
system.switch_cpus.int_regfile_reads        649232626                       # number of integer regfile reads
system.switch_cpus.int_regfile_writes        30844688                       # number of integer regfile writes
system.switch_cpus.ipc                       0.137001                       # IPC: Instructions Per Cycle
system.switch_cpus.ipc_total                 0.137001                       # IPC: Total IPC of All Threads
system.switch_cpus.iq.FU_type_0::No_OpClass          109      0.00%      0.00% # Type of FU issued
system.switch_cpus.iq.FU_type_0::IntAlu     137773064     16.81%     16.81% # Type of FU issued
system.switch_cpus.iq.FU_type_0::IntMult            0      0.00%     16.81% # Type of FU issued
system.switch_cpus.iq.FU_type_0::IntDiv             0      0.00%     16.81% # Type of FU issued
system.switch_cpus.iq.FU_type_0::FloatAdd     93964035     11.47%     28.28% # Type of FU issued
system.switch_cpus.iq.FU_type_0::FloatCmp            0      0.00%     28.28% # Type of FU issued
system.switch_cpus.iq.FU_type_0::FloatCvt            0      0.00%     28.28% # Type of FU issued
system.switch_cpus.iq.FU_type_0::FloatMult            0      0.00%     28.28% # Type of FU issued
system.switch_cpus.iq.FU_type_0::FloatMultAcc            0      0.00%     28.28% # Type of FU issued
system.switch_cpus.iq.FU_type_0::FloatDiv            0      0.00%     28.28% # Type of FU issued
system.switch_cpus.iq.FU_type_0::FloatMisc            0      0.00%     28.28% # Type of FU issued
system.switch_cpus.iq.FU_type_0::FloatSqrt            0      0.00%     28.28% # Type of FU issued
system.switch_cpus.iq.FU_type_0::SimdAdd            0      0.00%     28.28% # Type of FU issued
system.switch_cpus.iq.FU_type_0::SimdAddAcc            0      0.00%     28.28% # Type of FU issued
system.switch_cpus.iq.FU_type_0::SimdAlu        36864      0.00%     28.29% # Type of FU issued
system.switch_cpus.iq.FU_type_0::SimdCmp            0      0.00%     28.29% # Type of FU issued
system.switch_cpus.iq.FU_type_0::SimdCvt            0      0.00%     28.29% # Type of FU issued
system.switch_cpus.iq.FU_type_0::SimdMisc            0      0.00%     28.29% # Type of FU issued
system.switch_cpus.iq.FU_type_0::SimdMult            0      0.00%     28.29% # Type of FU issued
system.switch_cpus.iq.FU_type_0::SimdMultAcc            0      0.00%     28.29% # Type of FU issued
system.switch_cpus.iq.FU_type_0::SimdShift            0      0.00%     28.29% # Type of FU issued
system.switch_cpus.iq.FU_type_0::SimdShiftAcc            0      0.00%     28.29% # Type of FU issued
system.switch_cpus.iq.FU_type_0::SimdDiv            0      0.00%     28.29% # Type of FU issued
system.switch_cpus.iq.FU_type_0::SimdSqrt            0      0.00%     28.29% # Type of FU issued
system.switch_cpus.iq.FU_type_0::SimdFloatAdd    169179599     20.65%     48.93% # Type of FU issued
system.switch_cpus.iq.FU_type_0::SimdFloatAlu            0      0.00%     48.93% # Type of FU issued
system.switch_cpus.iq.FU_type_0::SimdFloatCmp            0      0.00%     48.93% # Type of FU issued
system.switch_cpus.iq.FU_type_0::SimdFloatCvt            0      0.00%     48.93% # Type of FU issued
system.switch_cpus.iq.FU_type_0::SimdFloatDiv      3302307      0.40%     49.34% # Type of FU issued
system.switch_cpus.iq.FU_type_0::SimdFloatMisc            0      0.00%     49.34% # Type of FU issued
system.switch_cpus.iq.FU_type_0::SimdFloatMult    102560975     12.52%     61.85% # Type of FU issued
system.switch_cpus.iq.FU_type_0::SimdFloatMultAcc            0      0.00%     61.85% # Type of FU issued
system.switch_cpus.iq.FU_type_0::SimdFloatSqrt            0      0.00%     61.85% # Type of FU issued
system.switch_cpus.iq.FU_type_0::SimdReduceAdd            0      0.00%     61.85% # Type of FU issued
system.switch_cpus.iq.FU_type_0::SimdReduceAlu            0      0.00%     61.85% # Type of FU issued
system.switch_cpus.iq.FU_type_0::SimdReduceCmp            0      0.00%     61.85% # Type of FU issued
system.switch_cpus.iq.FU_type_0::SimdFloatReduceAdd            0      0.00%     61.85% # Type of FU issued
system.switch_cpus.iq.FU_type_0::SimdFloatReduceCmp            0      0.00%     61.85% # Type of FU issued
system.switch_cpus.iq.FU_type_0::SimdAes            0      0.00%     61.85% # Type of FU issued
system.switch_cpus.iq.FU_type_0::SimdAesMix            0      0.00%     61.85% # Type of FU issued
system.switch_cpus.iq.FU_type_0::SimdSha1Hash            0      0.00%     61.85% # Type of FU issued
system.switch_cpus.iq.FU_type_0::SimdSha1Hash2            0      0.00%     61.85% # Type of FU issued
system.switch_cpus.iq.FU_type_0::SimdSha256Hash            0      0.00%     61.85% # Type of FU issued
system.switch_cpus.iq.FU_type_0::SimdSha256Hash2            0      0.00%     61.85% # Type of FU issued
system.switch_cpus.iq.FU_type_0::SimdShaSigma2            0      0.00%     61.85% # Type of FU issued
system.switch_cpus.iq.FU_type_0::SimdShaSigma3            0      0.00%     61.85% # Type of FU issued
system.switch_cpus.iq.FU_type_0::SimdPredAlu            0      0.00%     61.85% # Type of FU issued
system.switch_cpus.iq.FU_type_0::MemRead      2658975      0.32%     62.18% # Type of FU issued
system.switch_cpus.iq.FU_type_0::MemWrite       147463      0.02%     62.20% # Type of FU issued
system.switch_cpus.iq.FU_type_0::FloatMemRead    241963312     29.53%     91.73% # Type of FU issued
system.switch_cpus.iq.FU_type_0::FloatMemWrite     67787975      8.27%    100.00% # Type of FU issued
system.switch_cpus.iq.FU_type_0::IprAccess            0      0.00%    100.00% # Type of FU issued
system.switch_cpus.iq.FU_type_0::InstPrefetch            0      0.00%    100.00% # Type of FU issued
system.switch_cpus.iq.FU_type_0::total      819374678                       # Type of FU issued
system.switch_cpus.iq.fp_alu_accesses       783376007                       # Number of floating point alu accesses
system.switch_cpus.iq.fp_inst_queue_reads   1566949962                       # Number of floating instruction queue reads
system.switch_cpus.iq.fp_inst_queue_wakeup_accesses    666354897                       # Number of floating instruction queue wakeup accesses
system.switch_cpus.iq.fp_inst_queue_writes    667562018                       # Number of floating instruction queue writes
system.switch_cpus.iq.fu_busy_cnt                   0                       # FU busy when requested
system.switch_cpus.iq.fu_busy_rate                  0                       # FU busy rate (busy events/executed inst)
system.switch_cpus.iq.fu_full::No_OpClass            0                       # attempts to use FU when none available
system.switch_cpus.iq.fu_full::IntAlu               0                       # attempts to use FU when none available
system.switch_cpus.iq.fu_full::IntMult              0                       # attempts to use FU when none available
system.switch_cpus.iq.fu_full::IntDiv               0                       # attempts to use FU when none available
system.switch_cpus.iq.fu_full::FloatAdd             0                       # attempts to use FU when none available
system.switch_cpus.iq.fu_full::FloatCmp             0                       # attempts to use FU when none available
system.switch_cpus.iq.fu_full::FloatCvt             0                       # attempts to use FU when none available
system.switch_cpus.iq.fu_full::FloatMult            0                       # attempts to use FU when none available
system.switch_cpus.iq.fu_full::FloatMultAcc            0                       # attempts to use FU when none available
system.switch_cpus.iq.fu_full::FloatDiv             0                       # attempts to use FU when none available
system.switch_cpus.iq.fu_full::FloatMisc            0                       # attempts to use FU when none available
system.switch_cpus.iq.fu_full::FloatSqrt            0                       # attempts to use FU when none available
system.switch_cpus.iq.fu_full::SimdAdd              0                       # attempts to use FU when none available
system.switch_cpus.iq.fu_full::SimdAddAcc            0                       # attempts to use FU when none available
system.switch_cpus.iq.fu_full::SimdAlu              0                       # attempts to use FU when none available
system.switch_cpus.iq.fu_full::SimdCmp              0                       # attempts to use FU when none available
system.switch_cpus.iq.fu_full::SimdCvt              0                       # attempts to use FU when none available
system.switch_cpus.iq.fu_full::SimdMisc             0                       # attempts to use FU when none available
system.switch_cpus.iq.fu_full::SimdMult             0                       # attempts to use FU when none available
system.switch_cpus.iq.fu_full::SimdMultAcc            0                       # attempts to use FU when none available
system.switch_cpus.iq.fu_full::SimdShift            0                       # attempts to use FU when none available
system.switch_cpus.iq.fu_full::SimdShiftAcc            0                       # attempts to use FU when none available
system.switch_cpus.iq.fu_full::SimdDiv              0                       # attempts to use FU when none available
system.switch_cpus.iq.fu_full::SimdSqrt             0                       # attempts to use FU when none available
system.switch_cpus.iq.fu_full::SimdFloatAdd            0                       # attempts to use FU when none available
system.switch_cpus.iq.fu_full::SimdFloatAlu            0                       # attempts to use FU when none available
system.switch_cpus.iq.fu_full::SimdFloatCmp            0                       # attempts to use FU when none available
system.switch_cpus.iq.fu_full::SimdFloatCvt            0                       # attempts to use FU when none available
system.switch_cpus.iq.fu_full::SimdFloatDiv            0                       # attempts to use FU when none available
system.switch_cpus.iq.fu_full::SimdFloatMisc            0                       # attempts to use FU when none available
system.switch_cpus.iq.fu_full::SimdFloatMult            0                       # attempts to use FU when none available
system.switch_cpus.iq.fu_full::SimdFloatMultAcc            0                       # attempts to use FU when none available
system.switch_cpus.iq.fu_full::SimdFloatSqrt            0                       # attempts to use FU when none available
system.switch_cpus.iq.fu_full::SimdReduceAdd            0                       # attempts to use FU when none available
system.switch_cpus.iq.fu_full::SimdReduceAlu            0                       # attempts to use FU when none available
system.switch_cpus.iq.fu_full::SimdReduceCmp            0                       # attempts to use FU when none available
system.switch_cpus.iq.fu_full::SimdFloatReduceAdd            0                       # attempts to use FU when none available
system.switch_cpus.iq.fu_full::SimdFloatReduceCmp            0                       # attempts to use FU when none available
system.switch_cpus.iq.fu_full::SimdAes              0                       # attempts to use FU when none available
system.switch_cpus.iq.fu_full::SimdAesMix            0                       # attempts to use FU when none available
system.switch_cpus.iq.fu_full::SimdSha1Hash            0                       # attempts to use FU when none available
system.switch_cpus.iq.fu_full::SimdSha1Hash2            0                       # attempts to use FU when none available
system.switch_cpus.iq.fu_full::SimdSha256Hash            0                       # attempts to use FU when none available
system.switch_cpus.iq.fu_full::SimdSha256Hash2            0                       # attempts to use FU when none available
system.switch_cpus.iq.fu_full::SimdShaSigma2            0                       # attempts to use FU when none available
system.switch_cpus.iq.fu_full::SimdShaSigma3            0                       # attempts to use FU when none available
system.switch_cpus.iq.fu_full::SimdPredAlu            0                       # attempts to use FU when none available
system.switch_cpus.iq.fu_full::MemRead              0                       # attempts to use FU when none available
system.switch_cpus.iq.fu_full::MemWrite             0                       # attempts to use FU when none available
system.switch_cpus.iq.fu_full::FloatMemRead            0                       # attempts to use FU when none available
system.switch_cpus.iq.fu_full::FloatMemWrite            0                       # attempts to use FU when none available
system.switch_cpus.iq.fu_full::IprAccess            0                       # attempts to use FU when none available
system.switch_cpus.iq.fu_full::InstPrefetch            0                       # attempts to use FU when none available
system.switch_cpus.iq.int_alu_accesses       35998562                       # Number of integer alu accesses
system.switch_cpus.iq.int_inst_queue_reads   3721594855                       # Number of integer instruction queue reads
system.switch_cpus.iq.int_inst_queue_wakeup_accesses     34669099                       # Number of integer instruction queue wakeup accesses
system.switch_cpus.iq.int_inst_queue_writes     34705629                       # Number of integer instruction queue writes
system.switch_cpus.iq.iqInstsAdded          701499832                       # Number of instructions added to the IQ (excludes non-spec)
system.switch_cpus.iq.iqInstsIssued         819374678                       # Number of instructions issued
system.switch_cpus.iq.iqSquashedInstsExamined       764293                       # Number of squashed instructions iterated over during squash; mainly for profiling
system.switch_cpus.iq.iqSquashedInstsIssued       198233                       # Number of squashed instructions issued
system.switch_cpus.iq.iqSquashedOperandsExamined      1614169                       # Number of squashed operands that are examined and possibly removed from graph
system.switch_cpus.iq.issued_per_cycle::samples   3649597231                       # Number of insts issued each cycle
system.switch_cpus.iq.issued_per_cycle::mean     0.224511                       # Number of insts issued each cycle
system.switch_cpus.iq.issued_per_cycle::stdev     0.865769                       # Number of insts issued each cycle
system.switch_cpus.iq.issued_per_cycle::underflows            0      0.00%      0.00% # Number of insts issued each cycle
system.switch_cpus.iq.issued_per_cycle::0   3382802918     92.69%     92.69% # Number of insts issued each cycle
system.switch_cpus.iq.issued_per_cycle::1     57709896      1.58%     94.27% # Number of insts issued each cycle
system.switch_cpus.iq.issued_per_cycle::2     19591494      0.54%     94.81% # Number of insts issued each cycle
system.switch_cpus.iq.issued_per_cycle::3     35489898      0.97%     95.78% # Number of insts issued each cycle
system.switch_cpus.iq.issued_per_cycle::4    154003025      4.22%    100.00% # Number of insts issued each cycle
system.switch_cpus.iq.issued_per_cycle::overflows            0      0.00%    100.00% # Number of insts issued each cycle
system.switch_cpus.iq.issued_per_cycle::min_value            0                       # Number of insts issued each cycle
system.switch_cpus.iq.issued_per_cycle::max_value            4                       # Number of insts issued each cycle
system.switch_cpus.iq.issued_per_cycle::total   3649597231                       # Number of insts issued each cycle
system.switch_cpus.iq.rate                   0.224511                       # Inst issue rate
system.switch_cpus.iq.vec_alu_accesses              0                       # Number of vector alu accesses
system.switch_cpus.iq.vec_inst_queue_reads            0                       # Number of vector instruction queue reads
system.switch_cpus.iq.vec_inst_queue_wakeup_accesses            0                       # Number of vector instruction queue wakeup accesses
system.switch_cpus.iq.vec_inst_queue_writes            0                       # Number of vector instruction queue writes
system.switch_cpus.itb.rdAccesses                   0                       # TLB accesses on read requests
system.switch_cpus.itb.rdMisses                     0                       # TLB misses on read requests
system.switch_cpus.itb.wrAccesses            43144127                       # TLB accesses on write requests
system.switch_cpus.itb.wrMisses                    59                       # TLB misses on write requests
system.switch_cpus.memDep0.conflictingLoads      3238845                       # Number of conflicting loads.
system.switch_cpus.memDep0.conflictingStores      1024719                       # Number of conflicting stores.
system.switch_cpus.memDep0.insertedLoads    126527953                       # Number of loads inserted to the mem dependence unit.
system.switch_cpus.memDep0.insertedStores     68128234                       # Number of stores inserted to the mem dependence unit.
system.switch_cpus.misc_regfile_reads       331215741                       # number of misc regfile reads
system.switch_cpus.numCycles               3649598545                       # number of cpu cycles simulated
system.switch_cpus.numWorkItemsCompleted            0                       # number of work items this cpu completed
system.switch_cpus.numWorkItemsStarted              0                       # number of work items this cpu started
system.switch_cpus.rename.BlockCycles       821035922                       # Number of cycles rename is blocking
system.switch_cpus.rename.CommittedMaps     641117226                       # Number of HB maps that are committed
system.switch_cpus.rename.IQFullEvents        1015137                       # Number of times rename has blocked due to IQ full
system.switch_cpus.rename.IdleCycles         19838779                       # Number of cycles rename is idle
system.switch_cpus.rename.RenameLookups    1749517715                       # Number of register rename lookups that rename has made
system.switch_cpus.rename.RenamedInsts      701517661                       # Number of instructions processed by rename
system.switch_cpus.rename.RenamedOperands    641730169                       # Number of destination operands rename has renamed
system.switch_cpus.rename.RunCycles         162409050                       # Number of cycles rename is running
system.switch_cpus.rename.SQFullEvents     2640033760                       # Number of times rename has blocked due to SQ full
system.switch_cpus.rename.SquashCycles          17603                       # Number of cycles rename is squashing
system.switch_cpus.rename.UnblockCycles    2646295846                       # Number of cycles rename is unblocking
system.switch_cpus.rename.UndoneMaps           612917                       # Number of HB maps that are undone due to squashing
system.switch_cpus.rename.fp_rename_lookups   1102450231                       # Number of floating rename lookups
system.switch_cpus.rename.int_rename_lookups    413548897                       # Number of integer rename lookups
system.switch_cpus.rename.serializeStallCycles            0                       # count of cycles rename stalled for serializing inst
system.switch_cpus.rename.serializingInsts            0                       # count of serializing insts renamed
system.switch_cpus.rename.skidInsts          77253946                       # count of insts added to the skid buffer
system.switch_cpus.rename.tempSerializingInsts            0                       # count of temporary serializing insts renamed
system.switch_cpus.rob.rob_reads           4313557936                       # The number of ROB reads
system.switch_cpus.rob.rob_writes          1403110522                       # The number of ROB writes
system.switch_cpus.timesIdled                       9                       # Number of times that the entire CPU went into an idle state and unscheduled itself
system.tol2bus.snoop_filter.hit_multi_requests            0                       # Number of requests hitting in the snoop filter with multiple (>1) holders of the requested data.
system.tol2bus.snoop_filter.hit_multi_snoops            0                       # Number of snoops hitting in the snoop filter with multiple (>1) holders of the requested data.
system.tol2bus.snoop_filter.hit_single_requests     20527821                       # Number of requests hitting in the snoop filter with a single holder of the requested data.
system.tol2bus.snoop_filter.hit_single_snoops       106869                       # Number of snoops hitting in the snoop filter with a single holder of the requested data.
system.tol2bus.snoop_filter.tot_requests     41162506                       # Total number of requests made to the snoop filter.
system.tol2bus.snoop_filter.tot_snoops         106869                       # Total number of snoops made to the snoop filter.
system.membus.pwrStateResidencyTicks::UNDEFINED 2796095523000                       # Cumulative time (in ticks) in various power states
system.membus.trans_dist::ReadResp            3088541                       # Transaction distribution
system.membus.trans_dist::WritebackDirty     17071029                       # Transaction distribution
system.membus.trans_dist::CleanEvict          3088540                       # Transaction distribution
system.membus.trans_dist::ReadExReq          17071028                       # Transaction distribution
system.membus.trans_dist::ReadExResp         17071028                       # Transaction distribution
system.membus.trans_dist::ReadSharedReq       3088541                       # Transaction distribution
system.membus.pkt_count_system.l2.mem_side::system.mem_ctrls.port     60478707                       # Packet count per connected master and slave (bytes)
system.membus.pkt_count_system.l2.mem_side::total     60478707                       # Packet count per connected master and slave (bytes)
system.membus.pkt_count::total               60478707                       # Packet count per connected master and slave (bytes)
system.membus.pkt_size_system.l2.mem_side::system.mem_ctrls.port   2382758272                       # Cumulative packet size per connected master and slave (bytes)
system.membus.pkt_size_system.l2.mem_side::total   2382758272                       # Cumulative packet size per connected master and slave (bytes)
system.membus.pkt_size::total              2382758272                       # Cumulative packet size per connected master and slave (bytes)
system.membus.snoops                                0                       # Total snoops (count)
system.membus.snoopTraffic                          0                       # Total snoop traffic (bytes)
system.membus.snoop_fanout::samples          20159569                       # Request fanout histogram
system.membus.snoop_fanout::mean                    0                       # Request fanout histogram
system.membus.snoop_fanout::stdev                   0                       # Request fanout histogram
system.membus.snoop_fanout::underflows              0      0.00%      0.00% # Request fanout histogram
system.membus.snoop_fanout::0                20159569    100.00%    100.00% # Request fanout histogram
system.membus.snoop_fanout::1                       0      0.00%    100.00% # Request fanout histogram
system.membus.snoop_fanout::overflows               0      0.00%    100.00% # Request fanout histogram
system.membus.snoop_fanout::min_value               0                       # Request fanout histogram
system.membus.snoop_fanout::max_value               0                       # Request fanout histogram
system.membus.snoop_fanout::total            20159569                       # Request fanout histogram
system.membus.reqLayer2.occupancy        117159790198                       # Layer occupancy (ticks)
system.membus.reqLayer2.utilization               6.4                       # Layer utilization (%)
system.membus.respLayer1.occupancy       108536148319                       # Layer occupancy (ticks)
system.membus.respLayer1.utilization              5.9                       # Layer utilization (%)
system.switch_cpus.pwrStateResidencyTicks::OFF 2796095523000                       # Cumulative time (in ticks) in various power states
system.switch_cpus.dtb.walker.pwrStateResidencyTicks::UNDEFINED 2796095523000                       # Cumulative time (in ticks) in various power states
system.switch_cpus.itb.walker.pwrStateResidencyTicks::UNDEFINED 2796095523000                       # Cumulative time (in ticks) in various power states
system.tol2bus.pwrStateResidencyTicks::UNDEFINED 2796095523000                       # Cumulative time (in ticks) in various power states
system.tol2bus.trans_dist::ReadResp           3231562                       # Transaction distribution
system.tol2bus.trans_dist::WritebackDirty     34367279                       # Transaction distribution
system.tol2bus.trans_dist::WritebackClean            1                       # Transaction distribution
system.tol2bus.trans_dist::CleanEvict         6386955                       # Transaction distribution
system.tol2bus.trans_dist::ReadExReq         17296255                       # Transaction distribution
system.tol2bus.trans_dist::ReadExResp        17296255                       # Transaction distribution
system.tol2bus.trans_dist::ReadCleanReq             1                       # Transaction distribution
system.tol2bus.trans_dist::ReadSharedReq      3231561                       # Transaction distribution
system.tol2bus.pkt_count_system.cpu.icache.mem_side::system.l2.cpu_side            3                       # Packet count per connected master and slave (bytes)
system.tol2bus.pkt_count_system.cpu.dcache.mem_side::system.l2.cpu_side     61583448                       # Packet count per connected master and slave (bytes)
system.tol2bus.pkt_count::total              61583451                       # Packet count per connected master and slave (bytes)
system.tol2bus.pkt_size_system.cpu.icache.mem_side::system.l2.cpu_side          128                       # Cumulative packet size per connected master and slave (bytes)
system.tol2bus.pkt_size_system.cpu.dcache.mem_side::system.l2.cpu_side   2420740224                       # Cumulative packet size per connected master and slave (bytes)
system.tol2bus.pkt_size::total             2420740352                       # Cumulative packet size per connected master and slave (bytes)
system.tol2bus.snoops                        20226418                       # Total snoops (count)
system.tol2bus.snoopTraffic                1092545856                       # Total snoop traffic (bytes)
system.tol2bus.snoop_fanout::samples         40861103                       # Request fanout histogram
system.tol2bus.snoop_fanout::mean            0.002615                       # Request fanout histogram
system.tol2bus.snoop_fanout::stdev           0.051074                       # Request fanout histogram
system.tol2bus.snoop_fanout::underflows             0      0.00%      0.00% # Request fanout histogram
system.tol2bus.snoop_fanout::0               40754234     99.74%     99.74% # Request fanout histogram
system.tol2bus.snoop_fanout::1                 106869      0.26%    100.00% # Request fanout histogram
system.tol2bus.snoop_fanout::2                      0      0.00%    100.00% # Request fanout histogram
system.tol2bus.snoop_fanout::3                      0      0.00%    100.00% # Request fanout histogram
system.tol2bus.snoop_fanout::4                      0      0.00%    100.00% # Request fanout histogram
system.tol2bus.snoop_fanout::overflows              0      0.00%    100.00% # Request fanout histogram
system.tol2bus.snoop_fanout::min_value              0                       # Request fanout histogram
system.tol2bus.snoop_fanout::max_value              1                       # Request fanout histogram
system.tol2bus.snoop_fanout::total           40861103                       # Request fanout histogram
system.tol2bus.reqLayer0.occupancy        37930833128                       # Layer occupancy (ticks)
system.tol2bus.reqLayer0.utilization              2.1                       # Layer utilization (%)
system.tol2bus.respLayer1.occupancy       30791724000                       # Layer occupancy (ticks)
system.tol2bus.respLayer1.utilization             1.7                       # Layer utilization (%)
system.tol2bus.respLayer0.occupancy              1500                       # Layer occupancy (ticks)
system.tol2bus.respLayer0.utilization             0.0                       # Layer utilization (%)
system.voltage_domain.voltage                       1                       # Voltage in Volts
system.clk_domain.clock                          1000                       # Clock period in ticks
system.l2.pwrStateResidencyTicks::UNDEFINED 2796095523000                       # Cumulative time (in ticks) in various power states
system.l2.demand_hits::.switch_cpus.data       368248                       # number of demand (read+write) hits
system.l2.demand_hits::total                   368248                       # number of demand (read+write) hits
system.l2.overall_hits::.switch_cpus.data       368248                       # number of overall hits
system.l2.overall_hits::total                  368248                       # number of overall hits
system.l2.demand_misses::.switch_cpus.inst            1                       # number of demand (read+write) misses
system.l2.demand_misses::.switch_cpus.data     20159568                       # number of demand (read+write) misses
system.l2.demand_misses::total               20159569                       # number of demand (read+write) misses
system.l2.overall_misses::.switch_cpus.inst            1                       # number of overall misses
system.l2.overall_misses::.switch_cpus.data     20159568                       # number of overall misses
system.l2.overall_misses::total              20159569                       # number of overall misses
system.l2.demand_miss_latency::.switch_cpus.inst        98999                       # number of demand (read+write) miss cycles
system.l2.demand_miss_latency::.switch_cpus.data 1703513593803                       # number of demand (read+write) miss cycles
system.l2.demand_miss_latency::total     1703513692802                       # number of demand (read+write) miss cycles
system.l2.overall_miss_latency::.switch_cpus.inst        98999                       # number of overall miss cycles
system.l2.overall_miss_latency::.switch_cpus.data 1703513593803                       # number of overall miss cycles
system.l2.overall_miss_latency::total    1703513692802                       # number of overall miss cycles
system.l2.demand_accesses::.switch_cpus.inst            1                       # number of demand (read+write) accesses
system.l2.demand_accesses::.switch_cpus.data     20527816                       # number of demand (read+write) accesses
system.l2.demand_accesses::total             20527817                       # number of demand (read+write) accesses
system.l2.overall_accesses::.switch_cpus.inst            1                       # number of overall (read+write) accesses
system.l2.overall_accesses::.switch_cpus.data     20527816                       # number of overall (read+write) accesses
system.l2.overall_accesses::total            20527817                       # number of overall (read+write) accesses
system.l2.demand_miss_rate::.switch_cpus.inst            1                       # miss rate for demand accesses
system.l2.demand_miss_rate::.switch_cpus.data     0.982061                       # miss rate for demand accesses
system.l2.demand_miss_rate::total            0.982061                       # miss rate for demand accesses
system.l2.overall_miss_rate::.switch_cpus.inst            1                       # miss rate for overall accesses
system.l2.overall_miss_rate::.switch_cpus.data     0.982061                       # miss rate for overall accesses
system.l2.overall_miss_rate::total           0.982061                       # miss rate for overall accesses
system.l2.demand_avg_miss_latency::.switch_cpus.inst        98999                       # average overall miss latency
system.l2.demand_avg_miss_latency::.switch_cpus.data 84501.492979                       # average overall miss latency
system.l2.demand_avg_miss_latency::total 84501.493698                       # average overall miss latency
system.l2.overall_avg_miss_latency::.switch_cpus.inst        98999                       # average overall miss latency
system.l2.overall_avg_miss_latency::.switch_cpus.data 84501.492979                       # average overall miss latency
system.l2.overall_avg_miss_latency::total 84501.493698                       # average overall miss latency
system.l2.blocked_cycles::no_mshrs         3003733513                       # number of cycles access was blocked
system.l2.blocked_cycles::no_targets                0                       # number of cycles access was blocked
system.l2.blocked::no_mshrs                  20159569                       # number of cycles access was blocked
system.l2.blocked::no_targets                       0                       # number of cycles access was blocked
system.l2.avg_blocked_cycles::no_mshrs     148.997903                       # average number of cycles each access was blocked
system.l2.avg_blocked_cycles::no_targets          nan                       # average number of cycles each access was blocked
system.l2.writebacks::.writebacks            17071029                       # number of writebacks
system.l2.writebacks::total                  17071029                       # number of writebacks
system.l2.demand_mshr_misses::.switch_cpus.inst            1                       # number of demand (read+write) MSHR misses
system.l2.demand_mshr_misses::.switch_cpus.data     20159568                       # number of demand (read+write) MSHR misses
system.l2.demand_mshr_misses::total          20159569                       # number of demand (read+write) MSHR misses
system.l2.overall_mshr_misses::.switch_cpus.inst            1                       # number of overall MSHR misses
system.l2.overall_mshr_misses::.switch_cpus.data     20159568                       # number of overall MSHR misses
system.l2.overall_mshr_misses::total         20159569                       # number of overall MSHR misses
system.l2.demand_mshr_miss_latency::.switch_cpus.inst        88999                       # number of demand (read+write) MSHR miss cycles
system.l2.demand_mshr_miss_latency::.switch_cpus.data 1501917913803                       # number of demand (read+write) MSHR miss cycles
system.l2.demand_mshr_miss_latency::total 1501918002802                       # number of demand (read+write) MSHR miss cycles
system.l2.overall_mshr_miss_latency::.switch_cpus.inst        88999                       # number of overall MSHR miss cycles
system.l2.overall_mshr_miss_latency::.switch_cpus.data 1501917913803                       # number of overall MSHR miss cycles
system.l2.overall_mshr_miss_latency::total 1501918002802                       # number of overall MSHR miss cycles
system.l2.demand_mshr_miss_rate::.switch_cpus.inst            1                       # mshr miss rate for demand accesses
system.l2.demand_mshr_miss_rate::.switch_cpus.data     0.982061                       # mshr miss rate for demand accesses
system.l2.demand_mshr_miss_rate::total       0.982061                       # mshr miss rate for demand accesses
system.l2.overall_mshr_miss_rate::.switch_cpus.inst            1                       # mshr miss rate for overall accesses
system.l2.overall_mshr_miss_rate::.switch_cpus.data     0.982061                       # mshr miss rate for overall accesses
system.l2.overall_mshr_miss_rate::total      0.982061                       # mshr miss rate for overall accesses
system.l2.demand_avg_mshr_miss_latency::.switch_cpus.inst        88999                       # average overall mshr miss latency
system.l2.demand_avg_mshr_miss_latency::.switch_cpus.data 74501.492979                       # average overall mshr miss latency
system.l2.demand_avg_mshr_miss_latency::total 74501.493698                       # average overall mshr miss latency
system.l2.overall_avg_mshr_miss_latency::.switch_cpus.inst        88999                       # average overall mshr miss latency
system.l2.overall_avg_mshr_miss_latency::.switch_cpus.data 74501.492979                       # average overall mshr miss latency
system.l2.overall_avg_mshr_miss_latency::total 74501.493698                       # average overall mshr miss latency
system.l2.replacements                       20226418                       # number of replacements
system.l2.WritebackDirty_hits::.writebacks     17296250                       # number of WritebackDirty hits
system.l2.WritebackDirty_hits::total         17296250                       # number of WritebackDirty hits
system.l2.WritebackDirty_accesses::.writebacks     17296250                       # number of WritebackDirty accesses(hits+misses)
system.l2.WritebackDirty_accesses::total     17296250                       # number of WritebackDirty accesses(hits+misses)
system.l2.WritebackClean_hits::.writebacks            1                       # number of WritebackClean hits
system.l2.WritebackClean_hits::total                1                       # number of WritebackClean hits
system.l2.WritebackClean_accesses::.writebacks            1                       # number of WritebackClean accesses(hits+misses)
system.l2.WritebackClean_accesses::total            1                       # number of WritebackClean accesses(hits+misses)
system.l2.CleanEvict_mshr_misses::.writebacks        40020                       # number of CleanEvict MSHR misses
system.l2.CleanEvict_mshr_misses::total         40020                       # number of CleanEvict MSHR misses
system.l2.CleanEvict_mshr_miss_rate::.writebacks          inf                       # mshr miss rate for CleanEvict accesses
system.l2.CleanEvict_mshr_miss_rate::total          inf                       # mshr miss rate for CleanEvict accesses
system.l2.ReadExReq_hits::.switch_cpus.data       225227                       # number of ReadExReq hits
system.l2.ReadExReq_hits::total                225227                       # number of ReadExReq hits
system.l2.ReadExReq_misses::.switch_cpus.data     17071028                       # number of ReadExReq misses
system.l2.ReadExReq_misses::total            17071028                       # number of ReadExReq misses
system.l2.ReadExReq_miss_latency::.switch_cpus.data 1445587292172                       # number of ReadExReq miss cycles
system.l2.ReadExReq_miss_latency::total  1445587292172                       # number of ReadExReq miss cycles
system.l2.ReadExReq_accesses::.switch_cpus.data     17296255                       # number of ReadExReq accesses(hits+misses)
system.l2.ReadExReq_accesses::total          17296255                       # number of ReadExReq accesses(hits+misses)
system.l2.ReadExReq_miss_rate::.switch_cpus.data     0.986978                       # miss rate for ReadExReq accesses
system.l2.ReadExReq_miss_rate::total         0.986978                       # miss rate for ReadExReq accesses
system.l2.ReadExReq_avg_miss_latency::.switch_cpus.data 84680.740502                       # average ReadExReq miss latency
system.l2.ReadExReq_avg_miss_latency::total 84680.740502                       # average ReadExReq miss latency
system.l2.ReadExReq_mshr_misses::.switch_cpus.data     17071028                       # number of ReadExReq MSHR misses
system.l2.ReadExReq_mshr_misses::total       17071028                       # number of ReadExReq MSHR misses
system.l2.ReadExReq_mshr_miss_latency::.switch_cpus.data 1274877012172                       # number of ReadExReq MSHR miss cycles
system.l2.ReadExReq_mshr_miss_latency::total 1274877012172                       # number of ReadExReq MSHR miss cycles
system.l2.ReadExReq_mshr_miss_rate::.switch_cpus.data     0.986978                       # mshr miss rate for ReadExReq accesses
system.l2.ReadExReq_mshr_miss_rate::total     0.986978                       # mshr miss rate for ReadExReq accesses
system.l2.ReadExReq_avg_mshr_miss_latency::.switch_cpus.data 74680.740502                       # average ReadExReq mshr miss latency
system.l2.ReadExReq_avg_mshr_miss_latency::total 74680.740502                       # average ReadExReq mshr miss latency
system.l2.ReadCleanReq_misses::.switch_cpus.inst            1                       # number of ReadCleanReq misses
system.l2.ReadCleanReq_misses::total                1                       # number of ReadCleanReq misses
system.l2.ReadCleanReq_miss_latency::.switch_cpus.inst        98999                       # number of ReadCleanReq miss cycles
system.l2.ReadCleanReq_miss_latency::total        98999                       # number of ReadCleanReq miss cycles
system.l2.ReadCleanReq_accesses::.switch_cpus.inst            1                       # number of ReadCleanReq accesses(hits+misses)
system.l2.ReadCleanReq_accesses::total              1                       # number of ReadCleanReq accesses(hits+misses)
system.l2.ReadCleanReq_miss_rate::.switch_cpus.inst            1                       # miss rate for ReadCleanReq accesses
system.l2.ReadCleanReq_miss_rate::total             1                       # miss rate for ReadCleanReq accesses
system.l2.ReadCleanReq_avg_miss_latency::.switch_cpus.inst        98999                       # average ReadCleanReq miss latency
system.l2.ReadCleanReq_avg_miss_latency::total        98999                       # average ReadCleanReq miss latency
system.l2.ReadCleanReq_mshr_misses::.switch_cpus.inst            1                       # number of ReadCleanReq MSHR misses
system.l2.ReadCleanReq_mshr_misses::total            1                       # number of ReadCleanReq MSHR misses
system.l2.ReadCleanReq_mshr_miss_latency::.switch_cpus.inst        88999                       # number of ReadCleanReq MSHR miss cycles
system.l2.ReadCleanReq_mshr_miss_latency::total        88999                       # number of ReadCleanReq MSHR miss cycles
system.l2.ReadCleanReq_mshr_miss_rate::.switch_cpus.inst            1                       # mshr miss rate for ReadCleanReq accesses
system.l2.ReadCleanReq_mshr_miss_rate::total            1                       # mshr miss rate for ReadCleanReq accesses
system.l2.ReadCleanReq_avg_mshr_miss_latency::.switch_cpus.inst        88999                       # average ReadCleanReq mshr miss latency
system.l2.ReadCleanReq_avg_mshr_miss_latency::total        88999                       # average ReadCleanReq mshr miss latency
system.l2.ReadSharedReq_hits::.switch_cpus.data       143021                       # number of ReadSharedReq hits
system.l2.ReadSharedReq_hits::total            143021                       # number of ReadSharedReq hits
system.l2.ReadSharedReq_misses::.switch_cpus.data      3088540                       # number of ReadSharedReq misses
system.l2.ReadSharedReq_misses::total         3088540                       # number of ReadSharedReq misses
system.l2.ReadSharedReq_miss_latency::.switch_cpus.data 257926301631                       # number of ReadSharedReq miss cycles
system.l2.ReadSharedReq_miss_latency::total 257926301631                       # number of ReadSharedReq miss cycles
system.l2.ReadSharedReq_accesses::.switch_cpus.data      3231561                       # number of ReadSharedReq accesses(hits+misses)
system.l2.ReadSharedReq_accesses::total       3231561                       # number of ReadSharedReq accesses(hits+misses)
system.l2.ReadSharedReq_miss_rate::.switch_cpus.data     0.955742                       # miss rate for ReadSharedReq accesses
system.l2.ReadSharedReq_miss_rate::total     0.955742                       # miss rate for ReadSharedReq accesses
system.l2.ReadSharedReq_avg_miss_latency::.switch_cpus.data 83510.753181                       # average ReadSharedReq miss latency
system.l2.ReadSharedReq_avg_miss_latency::total 83510.753181                       # average ReadSharedReq miss latency
system.l2.ReadSharedReq_mshr_misses::.switch_cpus.data      3088540                       # number of ReadSharedReq MSHR misses
system.l2.ReadSharedReq_mshr_misses::total      3088540                       # number of ReadSharedReq MSHR misses
system.l2.ReadSharedReq_mshr_miss_latency::.switch_cpus.data 227040901631                       # number of ReadSharedReq MSHR miss cycles
system.l2.ReadSharedReq_mshr_miss_latency::total 227040901631                       # number of ReadSharedReq MSHR miss cycles
system.l2.ReadSharedReq_mshr_miss_rate::.switch_cpus.data     0.955742                       # mshr miss rate for ReadSharedReq accesses
[...]
system.cpu.icache.tags.occ_task_id_blocks::1024          254                       # Occupied blocks per task id
system.cpu.icache.tags.age_task_id_blocks_1024::4          254                       # Occupied blocks per task id
system.cpu.icache.tags.occ_task_id_percent::1024     0.992188                       # Percentage of cache occupancy per task id
system.cpu.icache.tags.tag_accesses        3006056334                       # Number of tag accesses
system.cpu.icache.tags.data_accesses       3006056334                       # Number of data accesses
system.cpu.dtb.walker.pwrStateResidencyTicks::UNDEFINED 2796095523000                       # Cumulative time (in ticks) in various power states
system.cpu.interrupts.clk_domain.clock           8000                       # Clock period in ticks
system.cpu.itb_walker_cache.pwrStateResidencyTicks::UNDEFINED 2796095523000                       # Cumulative time (in ticks) in various power states
system.cpu.itb_walker_cache.blocked_cycles::no_mshrs            0                       # number of cycles access was blocked
system.cpu.itb_walker_cache.blocked_cycles::no_targets            0                       # number of cycles access was blocked
system.cpu.itb_walker_cache.blocked::no_mshrs            0                       # number of cycles access was blocked
system.cpu.itb_walker_cache.blocked::no_targets            0                       # number of cycles access was blocked
system.cpu.itb_walker_cache.avg_blocked_cycles::no_mshrs          nan                       # average number of cycles each access was blocked
system.cpu.itb_walker_cache.avg_blocked_cycles::no_targets          nan                       # average number of cycles each access was blocked
system.cpu.itb_walker_cache.replacements            0                       # number of replacements
system.cpu.itb_walker_cache.tags.pwrStateResidencyTicks::UNDEFINED 2796095523000                       # Cumulative time (in ticks) in various power states
system.cpu.itb_walker_cache.tags.tagsinuse            0                       # Cycle average of tags in use
system.cpu.itb_walker_cache.tags.total_refs            0                       # Total number of references to valid blocks.
system.cpu.itb_walker_cache.tags.sampled_refs            0                       # Sample count of references to valid blocks.
system.cpu.itb_walker_cache.tags.avg_refs          nan                       # Average number of references to valid blocks.
system.cpu.itb_walker_cache.tags.warmup_cycle            0                       # Cycle when the warmup percentage was hit.
system.cpu.itb_walker_cache.tags.tag_accesses            0                       # Number of tag accesses
system.cpu.itb_walker_cache.tags.data_accesses            0                       # Number of data accesses
system.cpu.itb.walker.pwrStateResidencyTicks::UNDEFINED 2796095523000                       # Cumulative time (in ticks) in various power states
system.cpu.dtb_walker_cache.pwrStateResidencyTicks::UNDEFINED 2796095523000                       # Cumulative time (in ticks) in various power states
system.cpu.dtb_walker_cache.blocked_cycles::no_mshrs            0                       # number of cycles access was blocked
system.cpu.dtb_walker_cache.blocked_cycles::no_targets            0                       # number of cycles access was blocked
system.cpu.dtb_walker_cache.blocked::no_mshrs            0                       # number of cycles access was blocked
system.cpu.dtb_walker_cache.blocked::no_targets            0                       # number of cycles access was blocked
system.cpu.dtb_walker_cache.avg_blocked_cycles::no_mshrs          nan                       # average number of cycles each access was blocked
system.cpu.dtb_walker_cache.avg_blocked_cycles::no_targets          nan                       # average number of cycles each access was blocked
system.cpu.dtb_walker_cache.replacements            0                       # number of replacements
system.cpu.dtb_walker_cache.tags.pwrStateResidencyTicks::UNDEFINED 2796095523000                       # Cumulative time (in ticks) in various power states
system.cpu.dtb_walker_cache.tags.tagsinuse            0                       # Cycle average of tags in use
system.cpu.dtb_walker_cache.tags.total_refs            0                       # Total number of references to valid blocks.
system.cpu.dtb_walker_cache.tags.sampled_refs            0                       # Sample count of references to valid blocks.
system.cpu.dtb_walker_cache.tags.avg_refs          nan                       # Average number of references to valid blocks.
system.cpu.dtb_walker_cache.tags.warmup_cycle            0                       # Cycle when the warmup percentage was hit.
system.cpu.dtb_walker_cache.tags.tag_accesses            0                       # Number of tag accesses
system.cpu.dtb_walker_cache.tags.data_accesses            0                       # Number of data accesses
system.cpu.dcache.pwrStateResidencyTicks::UNDEFINED 2796095523000                       # Cumulative time (in ticks) in various power states
system.cpu.dcache.demand_hits::.cpu.data    364754460                       # number of demand (read+write) hits
system.cpu.dcache.demand_hits::.switch_cpus.data    129925839                       # number of demand (read+write) hits
system.cpu.dcache.demand_hits::total        494680299                       # number of demand (read+write) hits
system.cpu.dcache.overall_hits::.cpu.data    364754460                       # number of overall hits
system.cpu.dcache.overall_hits::.switch_cpus.data    129925839                       # number of overall hits
system.cpu.dcache.overall_hits::total       494680299                       # number of overall hits
system.cpu.dcache.demand_misses::.cpu.data     39582561                       # number of demand (read+write) misses
system.cpu.dcache.demand_misses::.switch_cpus.data     20527816                       # number of demand (read+write) misses
system.cpu.dcache.demand_misses::total       60110377                       # number of demand (read+write) misses
system.cpu.dcache.overall_misses::.cpu.data     39582561                       # number of overall misses
system.cpu.dcache.overall_misses::.switch_cpus.data     20527816                       # number of overall misses
system.cpu.dcache.overall_misses::total      60110377                       # number of overall misses
system.cpu.dcache.demand_miss_latency::.switch_cpus.data 1769327807986                       # number of demand (read+write) miss cycles
system.cpu.dcache.demand_miss_latency::total 1769327807986                       # number of demand (read+write) miss cycles
system.cpu.dcache.overall_miss_latency::.switch_cpus.data 1769327807986                       # number of overall miss cycles
system.cpu.dcache.overall_miss_latency::total 1769327807986                       # number of overall miss cycles
system.cpu.dcache.demand_accesses::.cpu.data    404337021                       # number of demand (read+write) accesses
system.cpu.dcache.demand_accesses::.switch_cpus.data    150453655                       # number of demand (read+write) accesses
system.cpu.dcache.demand_accesses::total    554790676                       # number of demand (read+write) accesses
system.cpu.dcache.overall_accesses::.cpu.data    404337021                       # number of overall (read+write) accesses
system.cpu.dcache.overall_accesses::.switch_cpus.data    150453655                       # number of overall (read+write) accesses
system.cpu.dcache.overall_accesses::total    554790676                       # number of overall (read+write) accesses
system.cpu.dcache.demand_miss_rate::.cpu.data     0.097895                       # miss rate for demand accesses
system.cpu.dcache.demand_miss_rate::.switch_cpus.data     0.136439                       # miss rate for demand accesses
system.cpu.dcache.demand_miss_rate::total     0.108348                       # miss rate for demand accesses
system.cpu.dcache.overall_miss_rate::.cpu.data     0.097895                       # miss rate for overall accesses
system.cpu.dcache.overall_miss_rate::.switch_cpus.data     0.136439                       # miss rate for overall accesses
system.cpu.dcache.overall_miss_rate::total     0.108348                       # miss rate for overall accesses
system.cpu.dcache.demand_avg_miss_latency::.switch_cpus.data 86191.721905                       # average overall miss latency
system.cpu.dcache.demand_avg_miss_latency::total 29434.648330                       # average overall miss latency
system.cpu.dcache.overall_avg_miss_latency::.switch_cpus.data 86191.721905                       # average overall miss latency
system.cpu.dcache.overall_avg_miss_latency::total 29434.648330                       # average overall miss latency
system.cpu.dcache.blocked_cycles::no_mshrs   3495288602                       # number of cycles access was blocked
system.cpu.dcache.blocked_cycles::no_targets            0                       # number of cycles access was blocked
system.cpu.dcache.blocked::no_mshrs          20527816                       # number of cycles access was blocked
system.cpu.dcache.blocked::no_targets               0                       # number of cycles access was blocked
system.cpu.dcache.avg_blocked_cycles::no_mshrs   170.270846                       # average number of cycles each access was blocked
system.cpu.dcache.avg_blocked_cycles::no_targets          nan                       # average number of cycles each access was blocked
system.cpu.dcache.writebacks::.writebacks     48964079                       # number of writebacks
system.cpu.dcache.writebacks::total          48964079                       # number of writebacks
system.cpu.dcache.demand_mshr_misses::.switch_cpus.data     20527816                       # number of demand (read+write) MSHR misses
system.cpu.dcache.demand_mshr_misses::total     20527816                       # number of demand (read+write) MSHR misses
system.cpu.dcache.overall_mshr_misses::.switch_cpus.data     20527816                       # number of overall MSHR misses
system.cpu.dcache.overall_mshr_misses::total     20527816                       # number of overall MSHR misses
system.cpu.dcache.demand_mshr_miss_latency::.switch_cpus.data 1748799991986                       # number of demand (read+write) MSHR miss cycles
system.cpu.dcache.demand_mshr_miss_latency::total 1748799991986                       # number of demand (read+write) MSHR miss cycles
system.cpu.dcache.overall_mshr_miss_latency::.switch_cpus.data 1748799991986                       # number of overall MSHR miss cycles
system.cpu.dcache.overall_mshr_miss_latency::total 1748799991986                       # number of overall MSHR miss cycles
system.cpu.dcache.demand_mshr_miss_rate::.switch_cpus.data     0.136439                       # mshr miss rate for demand accesses
system.cpu.dcache.demand_mshr_miss_rate::total     0.037001                       # mshr miss rate for demand accesses
system.cpu.dcache.overall_mshr_miss_rate::.switch_cpus.data     0.136439                       # mshr miss rate for overall accesses
system.cpu.dcache.overall_mshr_miss_rate::total     0.037001                       # mshr miss rate for overall accesses
system.cpu.dcache.demand_avg_mshr_miss_latency::.switch_cpus.data 85191.721905                       # average overall mshr miss latency
system.cpu.dcache.demand_avg_mshr_miss_latency::total 85191.721905                       # average overall mshr miss latency
system.cpu.dcache.overall_avg_mshr_miss_latency::.switch_cpus.data 85191.721905                       # average overall mshr miss latency
system.cpu.dcache.overall_avg_mshr_miss_latency::total 85191.721905                       # average overall mshr miss latency
system.cpu.dcache.replacements               60110121                       # number of replacements
system.cpu.dcache.ReadReq_hits::.cpu.data    226788147                       # number of ReadReq hits
system.cpu.dcache.ReadReq_hits::.switch_cpus.data     79287346                       # number of ReadReq hits
system.cpu.dcache.ReadReq_hits::total       306075493                       # number of ReadReq hits
system.cpu.dcache.ReadReq_misses::.cpu.data      8222878                       # number of ReadReq misses
system.cpu.dcache.ReadReq_misses::.switch_cpus.data      3231561                       # number of ReadReq misses
system.cpu.dcache.ReadReq_misses::total      11454439                       # number of ReadReq misses
system.cpu.dcache.ReadReq_miss_latency::.switch_cpus.data 268681637000                       # number of ReadReq miss cycles
system.cpu.dcache.ReadReq_miss_latency::total 268681637000                       # number of ReadReq miss cycles
system.cpu.dcache.ReadReq_accesses::.cpu.data    235011025                       # number of ReadReq accesses(hits+misses)
system.cpu.dcache.ReadReq_accesses::.switch_cpus.data     82518907                       # number of ReadReq accesses(hits+misses)
system.cpu.dcache.ReadReq_accesses::total    317529932                       # number of ReadReq accesses(hits+misses)
system.cpu.dcache.ReadReq_miss_rate::.cpu.data     0.034989                       # miss rate for ReadReq accesses
system.cpu.dcache.ReadReq_miss_rate::.switch_cpus.data     0.039161                       # miss rate for ReadReq accesses
system.cpu.dcache.ReadReq_miss_rate::total     0.036074                       # miss rate for ReadReq accesses
system.cpu.dcache.ReadReq_avg_miss_latency::.switch_cpus.data 83142.987863                       # average ReadReq miss latency
system.cpu.dcache.ReadReq_avg_miss_latency::total 23456.551386                       # average ReadReq miss latency
system.cpu.dcache.ReadReq_mshr_misses::.switch_cpus.data      3231561                       # number of ReadReq MSHR misses
system.cpu.dcache.ReadReq_mshr_misses::total      3231561                       # number of ReadReq MSHR misses
system.cpu.dcache.ReadReq_mshr_miss_latency::.switch_cpus.data 265450076000                       # number of ReadReq MSHR miss cycles
system.cpu.dcache.ReadReq_mshr_miss_latency::total 265450076000                       # number of ReadReq MSHR miss cycles
system.cpu.dcache.ReadReq_mshr_miss_rate::.switch_cpus.data     0.039161                       # mshr miss rate for ReadReq accesses
system.cpu.dcache.ReadReq_mshr_miss_rate::total     0.010177                       # mshr miss rate for ReadReq accesses
system.cpu.dcache.ReadReq_avg_mshr_miss_latency::.switch_cpus.data 82142.987863                       # average ReadReq mshr miss latency
system.cpu.dcache.ReadReq_avg_mshr_miss_latency::total 82142.987863                       # average ReadReq mshr miss latency
system.cpu.dcache.WriteReq_hits::.cpu.data    137966313                       # number of WriteReq hits
system.cpu.dcache.WriteReq_hits::.switch_cpus.data     50638493                       # number of WriteReq hits
system.cpu.dcache.WriteReq_hits::total      188604806                       # number of WriteReq hits
system.cpu.dcache.WriteReq_misses::.cpu.data     31359683                       # number of WriteReq misses
system.cpu.dcache.WriteReq_misses::.switch_cpus.data     17296255                       # number of WriteReq misses
system.cpu.dcache.WriteReq_misses::total     48655938                       # number of WriteReq misses
system.cpu.dcache.WriteReq_miss_latency::.switch_cpus.data 1500646170986                       # number of WriteReq miss cycles
system.cpu.dcache.WriteReq_miss_latency::total 1500646170986                       # number of WriteReq miss cycles
system.cpu.dcache.WriteReq_accesses::.cpu.data    169325996                       # number of WriteReq accesses(hits+misses)
system.cpu.dcache.WriteReq_accesses::.switch_cpus.data     67934748                       # number of WriteReq accesses(hits+misses)
system.cpu.dcache.WriteReq_accesses::total    237260744                       # number of WriteReq accesses(hits+misses)
system.cpu.dcache.WriteReq_miss_rate::.cpu.data     0.185203                       # miss rate for WriteReq accesses
system.cpu.dcache.WriteReq_miss_rate::.switch_cpus.data     0.254601                       # miss rate for WriteReq accesses
system.cpu.dcache.WriteReq_miss_rate::total     0.205074                       # miss rate for WriteReq accesses
system.cpu.dcache.WriteReq_avg_miss_latency::.switch_cpus.data 86761.334808                       # average WriteReq miss latency
system.cpu.dcache.WriteReq_avg_miss_latency::total 30841.994475                       # average WriteReq miss latency
system.cpu.dcache.WriteReq_mshr_misses::.switch_cpus.data     17296255                       # number of WriteReq MSHR misses
system.cpu.dcache.WriteReq_mshr_misses::total     17296255                       # number of WriteReq MSHR misses
system.cpu.dcache.WriteReq_mshr_miss_latency::.switch_cpus.data 1483349915986                       # number of WriteReq MSHR miss cycles
system.cpu.dcache.WriteReq_mshr_miss_latency::total 1483349915986                       # number of WriteReq MSHR miss cycles
system.cpu.dcache.WriteReq_mshr_miss_rate::.switch_cpus.data     0.254601                       # mshr miss rate for WriteReq accesses
system.cpu.dcache.WriteReq_mshr_miss_rate::total     0.072900                       # mshr miss rate for WriteReq accesses
system.cpu.dcache.WriteReq_avg_mshr_miss_latency::.switch_cpus.data 85761.334808                       # average WriteReq mshr miss latency
system.cpu.dcache.WriteReq_avg_mshr_miss_latency::total 85761.334808                       # average WriteReq mshr miss latency
system.cpu.dcache.tags.pwrStateResidencyTicks::UNDEFINED 2796095523000                       # Cumulative time (in ticks) in various power states
system.cpu.dcache.tags.tagsinuse           255.999232                       # Cycle average of tags in use
system.cpu.dcache.tags.total_refs           554786741                       # Total number of references to valid blocks.
system.cpu.dcache.tags.sampled_refs          60110121                       # Sample count of references to valid blocks.
system.cpu.dcache.tags.avg_refs              9.229506                       # Average number of references to valid blocks.
system.cpu.dcache.tags.warmup_cycle              1000                       # Cycle when the warmup percentage was hit.
system.cpu.dcache.tags.occ_blocks::.cpu.data    88.929110                       # Average occupied blocks per requestor
system.cpu.dcache.tags.occ_blocks::.switch_cpus.data   167.070121                       # Average occupied blocks per requestor
system.cpu.dcache.tags.occ_percent::.cpu.data     0.347379                       # Average percentage of cache occupancy
system.cpu.dcache.tags.occ_percent::.switch_cpus.data     0.652618                       # Average percentage of cache occupancy
system.cpu.dcache.tags.occ_percent::total     0.999997                       # Average percentage of cache occupancy
system.cpu.dcache.tags.occ_task_id_blocks::1024          256                       # Occupied blocks per task id
system.cpu.dcache.tags.age_task_id_blocks_1024::0          100                       # Occupied blocks per task id
system.cpu.dcache.tags.age_task_id_blocks_1024::1          153                       # Occupied blocks per task id
system.cpu.dcache.tags.age_task_id_blocks_1024::2            3                       # Occupied blocks per task id
system.cpu.dcache.tags.occ_task_id_percent::1024            1                       # Percentage of cache occupancy per task id
system.cpu.dcache.tags.tag_accesses        1169691729                       # Number of tag accesses
system.cpu.dcache.tags.data_accesses       1169691729                       # Number of data accesses

---------- End Simulation Statistics   ----------
