
---------- Begin Simulation Statistics ----------
final_tick                               1527682042500                       # Number of ticks from beginning of simulation (restored from checkpoints and never reset)
host_inst_rate                                 336971                       # Simulator instruction rate (inst/s)
host_mem_usage                                4426520                       # Number of bytes of host memory used
host_op_rate                                   636876                       # Simulator op (including micro ops) rate (op/s)
host_seconds                                  4451.42                       # Real time elapsed on the host
host_tick_rate                               87750808                       # Simulator tick rate (ticks/s)
sim_freq                                 1000000000000                       # Frequency of simulated ticks
sim_insts                                  1500000001                       # Number of instructions simulated
sim_ops                                    2835000827                       # Number of ops (including micro ops) simulated
sim_seconds                                  0.390616                       # Number of seconds simulated
sim_ticks                                390615554000                       # Number of ticks simulated
system.cpu.committedInsts                           0                       # Number of instructions committed
system.cpu.committedOps                             0                       # Number of ops (including micro ops) committed
system.cpu.dtb.rdAccesses                           0                       # TLB accesses on read requests
system.cpu.dtb.rdMisses                             0                       # TLB misses on read requests
system.cpu.dtb.wrAccesses                           0                       # TLB accesses on write requests
system.cpu.dtb.wrMisses                             0                       # TLB misses on write requests
system.cpu.idle_fraction                            0                       # Percentage of idle cycles
system.cpu.itb.rdAccesses                           0                       # TLB accesses on read requests
system.cpu.itb.rdMisses                             0                       # TLB misses on read requests
system.cpu.itb.wrAccesses                           0                       # TLB accesses on write requests
system.cpu.itb.wrMisses                             0                       # TLB misses on write requests
system.cpu.not_idle_fraction                        1                       # Percentage of non-idle cycles
system.cpu.numCycles                                0                       # number of cpu cycles simulated
system.cpu.numWorkItemsCompleted                    0                       # number of work items this cpu completed
system.cpu.numWorkItemsStarted                      0                       # number of work items this cpu started
system.cpu.num_busy_cycles                          0                       # Number of busy cycles
system.cpu.num_conditional_control_insts            0                       # number of instructions that are conditional controls
system.cpu.num_fp_alu_accesses                      0                       # Number of float alu accesses
system.cpu.num_fp_insts                             0                       # number of float instructions
system.cpu.num_fp_register_reads                    0                       # number of times the floating registers were read
system.cpu.num_fp_register_writes                   0                       # number of times the floating registers were written
system.cpu.num_func_calls                           0                       # number of times a function call or return occured
system.cpu.num_idle_cycles                          0                       # Number of idle cycles
system.cpu.num_int_alu_accesses                     0                       # Number of integer alu accesses
system.cpu.num_int_insts                            0                       # number of integer instructions
system.cpu.num_int_register_reads                   0                       # number of times the integer registers were read
system.cpu.num_int_register_writes                  0                       # number of times the integer registers were written
system.cpu.num_load_insts                           0                       # Number of load instructions
system.cpu.num_mem_refs                             0                       # number of memory refs
system.cpu.num_store_insts                          0                       # Number of store instructions
system.cpu.num_vec_alu_accesses                     0                       # Number of vector alu accesses
system.cpu.num_vec_insts                            0                       # number of vector instructions
system.cpu.num_vec_register_reads                   0                       # number of times the vector registers were read
system.cpu.num_vec_register_writes                  0                       # number of times the vector registers were written
system.cpu.op_class::No_OpClass                     0                       # Class of executed instruction
system.cpu.op_class::IntAlu                         0                       # Class of executed instruction
system.cpu.op_class::IntMult                        0                       # Class of executed instruction
system.cpu.op_class::IntDiv                         0                       # Class of executed instruction
system.cpu.op_class::FloatAdd                       0                       # Class of executed instruction
system.cpu.op_class::FloatCmp                       0                       # Class of executed instruction
system.cpu.op_class::FloatCvt                       0                       # Class of executed instruction
system.cpu.op_class::FloatMult                      0                       # Class of executed instruction
system.cpu.op_class::FloatMultAcc                   0                       # Class of executed instruction
system.cpu.op_class::FloatDiv                       0                       # Class of executed instruction
system.cpu.op_class::FloatMisc                      0                       # Class of executed instruction
system.cpu.op_class::FloatSqrt                      0                       # Class of executed instruction
system.cpu.op_class::SimdAdd                        0                       # Class of executed instruction
system.cpu.op_class::SimdAddAcc                     0                       # Class of executed instruction
system.cpu.op_class::SimdAlu                        0                       # Class of executed instruction
system.cpu.op_class::SimdCmp                        0                       # Class of executed instruction
system.cpu.op_class::SimdCvt                        0                       # Class of executed instruction
system.cpu.op_class::SimdMisc                       0                       # Class of executed instruction
system.cpu.op_class::SimdMult                       0                       # Class of executed instruction
system.cpu.op_class::SimdMultAcc                    0                       # Class of executed instruction
system.cpu.op_class::SimdShift                      0                       # Class of executed instruction
system.cpu.op_class::SimdShiftAcc                   0                       # Class of executed instruction
system.cpu.op_class::SimdDiv                        0                       # Class of executed instruction
system.cpu.op_class::SimdSqrt                       0                       # Class of executed instruction
system.cpu.op_class::SimdFloatAdd                   0                       # Class of executed instruction
system.cpu.op_class::SimdFloatAlu                   0                       # Class of executed instruction
system.cpu.op_class::SimdFloatCmp                   0                       # Class of executed instruction
system.cpu.op_class::SimdFloatCvt                   0                       # Class of executed instruction
system.cpu.op_class::SimdFloatDiv                   0                       # Class of executed instruction
system.cpu.op_class::SimdFloatMisc                  0                       # Class of executed instruction
system.cpu.op_class::SimdFloatMult                  0                       # Class of executed instruction
system.cpu.op_class::SimdFloatMultAcc               0                       # Class of executed instruction
system.cpu.op_class::SimdFloatSqrt                  0                       # Class of executed instruction
system.cpu.op_class::SimdReduceAdd                  0                       # Class of executed instruction
system.cpu.op_class::SimdReduceAlu                  0                       # Class of executed instruction
system.cpu.op_class::SimdReduceCmp                  0                       # Class of executed instruction
system.cpu.op_class::SimdFloatReduceAdd             0                       # Class of executed instruction
system.cpu.op_class::SimdFloatReduceCmp             0                       # Class of executed instruction
system.cpu.op_class::SimdAes                        0                       # Class of executed instruction
system.cpu.op_class::SimdAesMix                     0                       # Class of executed instruction
system.cpu.op_class::SimdSha1Hash                   0                       # Class of executed instruction
system.cpu.op_class::SimdSha1Hash2                  0                       # Class of executed instruction
system.cpu.op_class::SimdSha256Hash                 0                       # Class of executed instruction
system.cpu.op_class::SimdSha256Hash2                0                       # Class of executed instruction
system.cpu.op_class::SimdShaSigma2                  0                       # Class of executed instruction
system.cpu.op_class::SimdShaSigma3                  0                       # Class of executed instruction
system.cpu.op_class::SimdPredAlu                    0                       # Class of executed instruction
system.cpu.op_class::MemRead                        0                       # Class of executed instruction
system.cpu.op_class::MemWrite                       0                       # Class of executed instruction
system.cpu.op_class::FloatMemRead                   0                       # Class of executed instruction
system.cpu.op_class::FloatMemWrite                  0                       # Class of executed instruction
system.cpu.op_class::IprAccess                      0                       # Class of executed instruction
system.cpu.op_class::InstPrefetch                   0                       # Class of executed instruction
system.cpu.op_class::total                          0                       # Class of executed instruction
system.cpu.workload.numSyscalls                   419                       # Number of system calls
system.membus.snoop_filter.hit_multi_requests            0                       # Number of requests hitting in the snoop filter with multiple (>1) holders of the requested data.
system.membus.snoop_filter.hit_multi_snoops            0                       # Number of snoops hitting in the snoop filter with multiple (>1) holders of the requested data.
system.membus.snoop_filter.hit_single_requests       853804                       # Number of requests hitting in the snoop filter with a single holder of the requested data.
system.membus.snoop_filter.hit_single_snoops            0                       # Number of snoops hitting in the snoop filter with a single holder of the requested data.
system.membus.snoop_filter.tot_requests       1707622                       # Total number of requests made to the snoop filter.
system.membus.snoop_filter.tot_snoops               0                       # Total number of snoops made to the snoop filter.
system.switch_cpus.branchPred.BTBCorrect            0                       # Number of correct BTB predictions (this stat may not work properly.
system.switch_cpus.branchPred.BTBHitPct      0.000000                       # BTB Hit Percentage
system.switch_cpus.branchPred.BTBHits               0                       # Number of BTB hits
system.switch_cpus.branchPred.BTBLookups    130957093                       # Number of BTB lookups
system.switch_cpus.branchPred.RASInCorrect          426                       # Number of incorrect RAS predictions.
system.switch_cpus.branchPred.condIncorrect      8591561                       # Number of conditional branches incorrect
system.switch_cpus.branchPred.condPredicted    141362650                       # Number of conditional branches predicted
system.switch_cpus.branchPred.indirectHits     54456315                       # Number of indirect target hits.
system.switch_cpus.branchPred.indirectLookups    130957093                       # Number of indirect predictor lookups.
system.switch_cpus.branchPred.indirectMisses     76500778                       # Number of indirect misses.
system.switch_cpus.branchPred.lookups       153512061                       # Number of BP lookups
system.switch_cpus.branchPred.usedRAS         4901885                       # Number of times the RAS was used to get a target.
system.switch_cpus.branchPredindirectMispredicted      6915091                       # Number of mispredicted indirect branches.
system.switch_cpus.cc_regfile_reads         602559802                       # number of cc regfile reads
system.switch_cpus.cc_regfile_writes        314578136                       # number of cc regfile writes
system.switch_cpus.commit.amos                      0                       # Number of atomic instructions committed
system.switch_cpus.commit.branchMispredicts      8597014                       # The number of times a branch was mispredicted
system.switch_cpus.commit.branches          110170214                       # Number of branches committed
system.switch_cpus.commit.bw_lim_events      35246332                       # number cycles where commit BW limit reached
system.switch_cpus.commit.commitNonSpecStalls          667                       # The number of times commit has been forced to stall to communicate backwards
system.switch_cpus.commit.commitSquashedInsts    155930382                       # The number of squashed insts skipped by commit
system.switch_cpus.commit.committedInsts    500000001                       # Number of instructions committed
system.switch_cpus.commit.committedOps      935034654                       # Number of ops (including micro ops) committed
system.switch_cpus.commit.committed_per_cycle::samples    703493830                       # Number of insts commited each cycle
system.switch_cpus.commit.committed_per_cycle::mean     1.329130                       # Number of insts commited each cycle
system.switch_cpus.commit.committed_per_cycle::stdev     2.205688                       # Number of insts commited each cycle
system.switch_cpus.commit.committed_per_cycle::underflows            0      0.00%      0.00% # Number of insts commited each cycle
system.switch_cpus.commit.committed_per_cycle::0    424718795     60.37%     60.37% # Number of insts commited each cycle
system.switch_cpus.commit.committed_per_cycle::1     79589889     11.31%     71.69% # Number of insts commited each cycle
system.switch_cpus.commit.committed_per_cycle::2     42958324      6.11%     77.79% # Number of insts commited each cycle
system.switch_cpus.commit.committed_per_cycle::3     58985761      8.38%     86.18% # Number of insts commited each cycle
system.switch_cpus.commit.committed_per_cycle::4     26454146      3.76%     89.94% # Number of insts commited each cycle
system.switch_cpus.commit.committed_per_cycle::5     17257275      2.45%     92.39% # Number of insts commited each cycle
system.switch_cpus.commit.committed_per_cycle::6      9485938      1.35%     93.74% # Number of insts commited each cycle
system.switch_cpus.commit.committed_per_cycle::7      8797370      1.25%     94.99% # Number of insts commited each cycle
system.switch_cpus.commit.committed_per_cycle::8     35246332      5.01%    100.00% # Number of insts commited each cycle
system.switch_cpus.commit.committed_per_cycle::overflows            0      0.00%    100.00% # Number of insts commited each cycle
system.switch_cpus.commit.committed_per_cycle::min_value            0                       # Number of insts commited each cycle
system.switch_cpus.commit.committed_per_cycle::max_value            8                       # Number of insts commited each cycle
system.switch_cpus.commit.committed_per_cycle::total    703493830                       # Number of insts commited each cycle
system.switch_cpus.commit.fp_insts           47547044                       # Number of committed floating point instructions.
system.switch_cpus.commit.function_calls      4129074                       # Number of function calls committed.
system.switch_cpus.commit.int_insts         902889400                       # Number of committed integer instructions.
system.switch_cpus.commit.loads             110887945                       # Number of loads committed
system.switch_cpus.commit.membars                 142                       # Number of memory barriers committed
system.switch_cpus.commit.op_class_0::No_OpClass      3546385      0.38%      0.38% # Class of committed instruction
system.switch_cpus.commit.op_class_0::IntAlu    723387125     77.36%     77.74% # Class of committed instruction
system.switch_cpus.commit.op_class_0::IntMult       747480      0.08%     77.82% # Class of committed instruction
system.switch_cpus.commit.op_class_0::IntDiv      6986611      0.75%     78.57% # Class of committed instruction
system.switch_cpus.commit.op_class_0::FloatAdd      7857201      0.84%     79.41% # Class of committed instruction
system.switch_cpus.commit.op_class_0::FloatCmp            0      0.00%     79.41% # Class of committed instruction
system.switch_cpus.commit.op_class_0::FloatCvt            0      0.00%     79.41% # Class of committed instruction
system.switch_cpus.commit.op_class_0::FloatMult            0      0.00%     79.41% # Class of committed instruction
system.switch_cpus.commit.op_class_0::FloatMultAcc            0      0.00%     79.41% # Class of committed instruction
system.switch_cpus.commit.op_class_0::FloatDiv            0      0.00%     79.41% # Class of committed instruction
system.switch_cpus.commit.op_class_0::FloatMisc            0      0.00%     79.41% # Class of committed instruction
system.switch_cpus.commit.op_class_0::FloatSqrt            0      0.00%     79.41% # Class of committed instruction
system.switch_cpus.commit.op_class_0::SimdAdd            0      0.00%     79.41% # Class of committed instruction
system.switch_cpus.commit.op_class_0::SimdAddAcc            0      0.00%     79.41% # Class of committed instruction
system.switch_cpus.commit.op_class_0::SimdAlu      1775042      0.19%     79.60% # Class of committed instruction
system.switch_cpus.commit.op_class_0::SimdCmp            0      0.00%     79.60% # Class of committed instruction
system.switch_cpus.commit.op_class_0::SimdCvt       408994      0.04%     79.65% # Class of committed instruction
system.switch_cpus.commit.op_class_0::SimdMisc       410220      0.04%     79.69% # Class of committed instruction
system.switch_cpus.commit.op_class_0::SimdMult            0      0.00%     79.69% # Class of committed instruction
system.switch_cpus.commit.op_class_0::SimdMultAcc            0      0.00%     79.69% # Class of committed instruction
system.switch_cpus.commit.op_class_0::SimdShift            0      0.00%     79.69% # Class of committed instruction
system.switch_cpus.commit.op_class_0::SimdShiftAcc            0      0.00%     79.69% # Class of committed instruction
system.switch_cpus.commit.op_class_0::SimdDiv            0      0.00%     79.69% # Class of committed instruction
system.switch_cpus.commit.op_class_0::SimdSqrt            0      0.00%     79.69% # Class of committed instruction
system.switch_cpus.commit.op_class_0::SimdFloatAdd      6968419      0.75%     80.43% # Class of committed instruction
system.switch_cpus.commit.op_class_0::SimdFloatAlu            0      0.00%     80.43% # Class of committed instruction
system.switch_cpus.commit.op_class_0::SimdFloatCmp            0      0.00%     80.43% # Class of committed instruction
system.switch_cpus.commit.op_class_0::SimdFloatCvt       890671      0.10%     80.53% # Class of committed instruction
system.switch_cpus.commit.op_class_0::SimdFloatDiv            0      0.00%     80.53% # Class of committed instruction
system.switch_cpus.commit.op_class_0::SimdFloatMisc            0      0.00%     80.53% # Class of committed instruction
system.switch_cpus.commit.op_class_0::SimdFloatMult      6385557      0.68%     81.21% # Class of committed instruction
system.switch_cpus.commit.op_class_0::SimdFloatMultAcc            0      0.00%     81.21% # Class of committed instruction
system.switch_cpus.commit.op_class_0::SimdFloatSqrt            0      0.00%     81.21% # Class of committed instruction
system.switch_cpus.commit.op_class_0::SimdReduceAdd            0      0.00%     81.21% # Class of committed instruction
system.switch_cpus.commit.op_class_0::SimdReduceAlu            0      0.00%     81.21% # Class of committed instruction
system.switch_cpus.commit.op_class_0::SimdReduceCmp            0      0.00%     81.21% # Class of committed instruction
system.switch_cpus.commit.op_class_0::SimdFloatReduceAdd            0      0.00%     81.21% # Class of committed instruction
system.switch_cpus.commit.op_class_0::SimdFloatReduceCmp            0      0.00%     81.21% # Class of committed instruction
system.switch_cpus.commit.op_class_0::SimdAes            0      0.00%     81.21% # Class of committed instruction
system.switch_cpus.commit.op_class_0::SimdAesMix            0      0.00%     81.21% # Class of committed instruction
system.switch_cpus.commit.op_class_0::SimdSha1Hash            0      0.00%     81.21% # Class of committed instruction
system.switch_cpus.commit.op_class_0::SimdSha1Hash2            0      0.00%     81.21% # Class of committed instruction
system.switch_cpus.commit.op_class_0::SimdSha256Hash            0      0.00%     81.21% # Class of committed instruction
system.switch_cpus.commit.op_class_0::SimdSha256Hash2            0      0.00%     81.21% # Class of committed instruction
system.switch_cpus.commit.op_class_0::SimdShaSigma2            0      0.00%     81.21% # Class of committed instruction
system.switch_cpus.commit.op_class_0::SimdShaSigma3            0      0.00%     81.21% # Class of committed instruction
system.switch_cpus.commit.op_class_0::SimdPredAlu            0      0.00%     81.21% # Class of committed instruction
system.switch_cpus.commit.op_class_0::MemRead     99727595     10.67%     91.88% # Class of committed instruction
system.switch_cpus.commit.op_class_0::MemWrite     57199797      6.12%     98.00% # Class of committed instruction
system.switch_cpus.commit.op_class_0::FloatMemRead     11160350      1.19%     99.19% # Class of committed instruction
system.switch_cpus.commit.op_class_0::FloatMemWrite      7583206      0.81%    100.00% # Class of committed instruction
system.switch_cpus.commit.op_class_0::IprAccess            0      0.00%    100.00% # Class of committed instruction
system.switch_cpus.commit.op_class_0::InstPrefetch            0      0.00%    100.00% # Class of committed instruction
system.switch_cpus.commit.op_class_0::total    935034653                       # Class of committed instruction
system.switch_cpus.commit.refs              175670948                       # Number of memory references committed
system.switch_cpus.commit.swp_count                 0                       # Number of s/w prefetches committed
system.switch_cpus.commit.vec_insts                 0                       # Number of committed Vector instructions.
system.switch_cpus.committedInsts           500000000                       # Number of Instructions Simulated
system.switch_cpus.committedOps             935034653                       # Number of Ops (including micro ops) Simulated
system.switch_cpus.cpi                       1.562462                       # CPI: Cycles Per Instruction
system.switch_cpus.cpi_total                 1.562462                       # CPI: Total CPI of All Threads
system.switch_cpus.decode.BlockedCycles     153112622                       # Number of cycles decode is blocked
system.switch_cpus.decode.DecodedInsts     1163607001                       # Number of instructions handled by decode
system.switch_cpus.decode.IdleCycles        260078758                       # Number of cycles decode is idle
system.switch_cpus.decode.RunCycles         298636331                       # Number of cycles decode is running
system.switch_cpus.decode.SquashCycles        8673270                       # Number of cycles decode is squashing
system.switch_cpus.decode.UnblockCycles       7006685                       # Number of cycles decode is unblocking
system.switch_cpus.dtb.rdAccesses           123441520                       # TLB accesses on read requests
system.switch_cpus.dtb.rdMisses                379545                       # TLB misses on read requests
system.switch_cpus.dtb.wrAccesses            70070759                       # TLB accesses on write requests
system.switch_cpus.dtb.wrMisses                 10675                       # TLB misses on write requests
system.switch_cpus.fetch.Branches           153512061                       # Number of branches that fetch encountered
system.switch_cpus.fetch.CacheLines         104732918                       # Number of cache lines fetched
system.switch_cpus.fetch.Cycles             361036331                       # Number of cycles fetch has run and was not squashing or blocked
system.switch_cpus.fetch.IcacheSquashes       4510063                       # Number of outstanding Icache misses that were squashed
system.switch_cpus.fetch.IcacheWaitRetryStallCycles     43072909                       # Number of stall cycles due to full MSHR
system.switch_cpus.fetch.Insts              682192684                       # Number of instructions fetch has processed
system.switch_cpus.fetch.MiscStallCycles      4517081                       # Number of cycles fetch has spent waiting on interrupts, or bad addresses, or out of MSHRs
system.switch_cpus.fetch.PendingQuiesceStallCycles           19                       # Number of stall cycles due to pending quiesce instructions
system.switch_cpus.fetch.PendingTrapStallCycles        43634                       # Number of stall cycles due to pending traps
system.switch_cpus.fetch.SquashCycles        17346540                       # Number of cycles fetch has spent squashing
system.switch_cpus.fetch.branchRate          0.196500                       # Number of branch fetches per cycle
system.switch_cpus.fetch.icacheStallCycles    310164429                       # Number of cycles fetch is stalled on an Icache miss
system.switch_cpus.fetch.predictedBranches     59358200                       # Number of branches that fetch has predicted taken
system.switch_cpus.fetch.rate                0.873228                       # Number of inst fetches per cycle
system.switch_cpus.fetch.rateDist::samples    727507673                       # Number of instructions fetched each cycle (Total)
system.switch_cpus.fetch.rateDist::mean      1.764879                       # Number of instructions fetched each cycle (Total)
system.switch_cpus.fetch.rateDist::stdev     2.998986                       # Number of instructions fetched each cycle (Total)
system.switch_cpus.fetch.rateDist::underflows            0      0.00%      0.00% # Number of instructions fetched each cycle (Total)
system.switch_cpus.fetch.rateDist::0        509048631     69.97%     69.97% # Number of instructions fetched each cycle (Total)
system.switch_cpus.fetch.rateDist::1         12408265      1.71%     71.68% # Number of instructions fetched each cycle (Total)
system.switch_cpus.fetch.rateDist::2         15160822      2.08%     73.76% # Number of instructions fetched each cycle (Total)
system.switch_cpus.fetch.rateDist::3         17468465      2.40%     76.16% # Number of instructions fetched each cycle (Total)
system.switch_cpus.fetch.rateDist::4         25802885      3.55%     79.71% # Number of instructions fetched each cycle (Total)
system.switch_cpus.fetch.rateDist::5         20885731      2.87%     82.58% # Number of instructions fetched each cycle (Total)
system.switch_cpus.fetch.rateDist::6         11576503      1.59%     84.17% # Number of instructions fetched each cycle (Total)
system.switch_cpus.fetch.rateDist::7          9522270      1.31%     85.48% # Number of instructions fetched each cycle (Total)
system.switch_cpus.fetch.rateDist::8        105634101     14.52%    100.00% # Number of instructions fetched each cycle (Total)
system.switch_cpus.fetch.rateDist::overflows            0      0.00%    100.00% # Number of instructions fetched each cycle (Total)
system.switch_cpus.fetch.rateDist::min_value            0                       # Number of instructions fetched each cycle (Total)
system.switch_cpus.fetch.rateDist::max_value            8                       # Number of instructions fetched each cycle (Total)
system.switch_cpus.fetch.rateDist::total    727507673                       # Number of instructions fetched each cycle (Total)
system.switch_cpus.fp_regfile_reads          65482430                       # number of floating regfile reads
system.switch_cpus.fp_regfile_writes         40924153                       # number of floating regfile writes
system.switch_cpus.idleCycles                53723435                       # Total number of cycles that the CPU has spent unscheduled due to idling
system.switch_cpus.iew.branchMispredicts      9924901                       # Number of branch mispredicts detected at execute
system.switch_cpus.iew.exec_branches        115978065                       # Number of branches executed
system.switch_cpus.iew.exec_nop                     0                       # number of nop insts executed
system.switch_cpus.iew.exec_rate             1.319105                       # Inst execution rate
system.switch_cpus.iew.exec_refs            205086713                       # number of memory reference insts executed
system.switch_cpus.iew.exec_stores           70070740                       # Number of stores executed
system.switch_cpus.iew.exec_swp                     0                       # number of swp insts executed
system.switch_cpus.iew.iewBlockCycles        33507805                       # Number of cycles IEW is blocking
system.switch_cpus.iew.iewDispLoadInsts     130695325                       # Number of dispatched load instructions
system.switch_cpus.iew.iewDispNonSpecInsts        66347                       # Number of dispatched non-speculative instructions
system.switch_cpus.iew.iewDispSquashedInsts       515031                       # Number of squashed instructions skipped by dispatch
system.switch_cpus.iew.iewDispStoreInsts     75408467                       # Number of dispatched store instructions
system.switch_cpus.iew.iewDispatchedInsts   1093137701                       # Number of instructions dispatched to IQ
system.switch_cpus.iew.iewExecLoadInsts     135015973                       # Number of load instructions executed
system.switch_cpus.iew.iewExecSquashedInsts     15891589                       # Number of squashed instructions skipped in execute
system.switch_cpus.iew.iewExecutedInsts    1030526215                       # Number of executed instructions
system.switch_cpus.iew.iewIQFullEvents         325191                       # Number of times the IQ has become full, causing a stall
system.switch_cpus.iew.iewIdleCycles                0                       # Number of cycles IEW is idle
system.switch_cpus.iew.iewLSQFullEvents       4026229                       # Number of times the LSQ has become full, causing a stall
system.switch_cpus.iew.iewSquashCycles        8673270                       # Number of cycles IEW is squashing
system.switch_cpus.iew.iewUnblockCycles       4631794                       # Number of cycles IEW is unblocking
system.switch_cpus.iew.lsq.thread0.blockedLoads            0                       # Number of blocked loads due to partial load-store forwarding
system.switch_cpus.iew.lsq.thread0.cacheBlocked      1678353                       # Number of times an access to memory failed due to the cache being blocked
system.switch_cpus.iew.lsq.thread0.forwLoads      7969938                       # Number of loads that had data forwarded from stores
system.switch_cpus.iew.lsq.thread0.ignoredResponses        11292                       # Number of memory responses ignored because the instruction is squashed
system.switch_cpus.iew.lsq.thread0.invAddrLoads            0                       # Number of loads ignored due to an invalid address
system.switch_cpus.iew.lsq.thread0.invAddrSwpfs            0                       # Number of software prefetches ignored due to an invalid address
system.switch_cpus.iew.lsq.thread0.memOrderViolation        10372                       # Number of memory ordering violations
system.switch_cpus.iew.lsq.thread0.rescheduledLoads         2210                       # Number of loads that were rescheduled
system.switch_cpus.iew.lsq.thread0.squashedLoads     19807361                       # Number of loads squashed
system.switch_cpus.iew.lsq.thread0.squashedStores     10625460                       # Number of stores squashed
system.switch_cpus.iew.memOrderViolationEvents        10372                       # Number of memory order violations
system.switch_cpus.iew.predictedNotTakenIncorrect      8646453                       # Number of branches that were predicted not taken incorrectly
system.switch_cpus.iew.predictedTakenIncorrect      1278448                       # Number of branches that were predicted taken incorrectly
system.switch_cpus.iew.wb_consumers        1128746036                       # num instructions consuming a value
system.switch_cpus.iew.wb_count            1011852855                       # cumulative count of insts written-back
system.switch_cpus.iew.wb_fanout             0.628080                       # average fanout of values written-back
system.switch_cpus.iew.wb_producers         708942788                       # num instructions producing a value
system.switch_cpus.iew.wb_rate               1.295203                       # insts written-back per cycle
system.switch_cpus.iew.wb_sent             1015092729                       # cumulative count of insts sent to commit
system.switch_cpus.int_regfile_reads       1504958590                       # number of integer regfile reads
system.switch_cpus.int_regfile_writes       799292810                       # number of integer regfile writes
system.switch_cpus.ipc                       0.640015                       # IPC: Instructions Per Cycle
system.switch_cpus.ipc_total                 0.640015                       # IPC: Total IPC of All Threads
system.switch_cpus.iq.FU_type_0::No_OpClass      5382913      0.51%      0.51% # Type of FU issued
system.switch_cpus.iq.FU_type_0::IntAlu     797650745     76.23%     76.74% # Type of FU issued
system.switch_cpus.iq.FU_type_0::IntMult       913449      0.09%     76.83% # Type of FU issued
system.switch_cpus.iq.FU_type_0::IntDiv       7555446      0.72%     77.55% # Type of FU issued
system.switch_cpus.iq.FU_type_0::FloatAdd      8181264      0.78%     78.33% # Type of FU issued
system.switch_cpus.iq.FU_type_0::FloatCmp            0      0.00%     78.33% # Type of FU issued
system.switch_cpus.iq.FU_type_0::FloatCvt            0      0.00%     78.33% # Type of FU issued
system.switch_cpus.iq.FU_type_0::FloatMult            0      0.00%     78.33% # Type of FU issued
system.switch_cpus.iq.FU_type_0::FloatMultAcc            0      0.00%     78.33% # Type of FU issued
system.switch_cpus.iq.FU_type_0::FloatDiv            0      0.00%     78.33% # Type of FU issued
system.switch_cpus.iq.FU_type_0::FloatMisc            0      0.00%     78.33% # Type of FU issued
system.switch_cpus.iq.FU_type_0::FloatSqrt            0      0.00%     78.33% # Type of FU issued
system.switch_cpus.iq.FU_type_0::SimdAdd            0      0.00%     78.33% # Type of FU issued
system.switch_cpus.iq.FU_type_0::SimdAddAcc            0      0.00%     78.33% # Type of FU issued
system.switch_cpus.iq.FU_type_0::SimdAlu      1837600      0.18%     78.51% # Type of FU issued
system.switch_cpus.iq.FU_type_0::SimdCmp            0      0.00%     78.51% # Type of FU issued
system.switch_cpus.iq.FU_type_0::SimdCvt       409134      0.04%     78.55% # Type of FU issued
system.switch_cpus.iq.FU_type_0::SimdMisc       413481      0.04%     78.59% # Type of FU issued
system.switch_cpus.iq.FU_type_0::SimdMult            0      0.00%     78.59% # Type of FU issued
system.switch_cpus.iq.FU_type_0::SimdMultAcc            0      0.00%     78.59% # Type of FU issued
system.switch_cpus.iq.FU_type_0::SimdShift            0      0.00%     78.59% # Type of FU issued
system.switch_cpus.iq.FU_type_0::SimdShiftAcc            0      0.00%     78.59% # Type of FU issued
system.switch_cpus.iq.FU_type_0::SimdDiv            0      0.00%     78.59% # Type of FU issued
system.switch_cpus.iq.FU_type_0::SimdSqrt            0      0.00%     78.59% # Type of FU issued
system.switch_cpus.iq.FU_type_0::SimdFloatAdd      7071004      0.68%     79.26% # Type of FU issued
system.switch_cpus.iq.FU_type_0::SimdFloatAlu            0      0.00%     79.26% # Type of FU issued
system.switch_cpus.iq.FU_type_0::SimdFloatCmp            0      0.00%     79.26% # Type of FU issued
system.switch_cpus.iq.FU_type_0::SimdFloatCvt       895379      0.09%     79.35% # Type of FU issued
system.switch_cpus.iq.FU_type_0::SimdFloatDiv            0      0.00%     79.35% # Type of FU issued
system.switch_cpus.iq.FU_type_0::SimdFloatMisc            0      0.00%     79.35% # Type of FU issued
system.switch_cpus.iq.FU_type_0::SimdFloatMult      6445114      0.62%     79.96% # Type of FU issued
system.switch_cpus.iq.FU_type_0::SimdFloatMultAcc            0      0.00%     79.96% # Type of FU issued
system.switch_cpus.iq.FU_type_0::SimdFloatSqrt            0      0.00%     79.96% # Type of FU issued
system.switch_cpus.iq.FU_type_0::SimdReduceAdd            0      0.00%     79.96% # Type of FU issued
system.switch_cpus.iq.FU_type_0::SimdReduceAlu            0      0.00%     79.96% # Type of FU issued
system.switch_cpus.iq.FU_type_0::SimdReduceCmp            0      0.00%     79.96% # Type of FU issued
system.switch_cpus.iq.FU_type_0::SimdFloatReduceAdd            0      0.00%     79.96% # Type of FU issued
system.switch_cpus.iq.FU_type_0::SimdFloatReduceCmp            0      0.00%     79.96% # Type of FU issued
system.switch_cpus.iq.FU_type_0::SimdAes            0      0.00%     79.96% # Type of FU issued
system.switch_cpus.iq.FU_type_0::SimdAesMix            0      0.00%     79.96% # Type of FU issued
system.switch_cpus.iq.FU_type_0::SimdSha1Hash            0      0.00%     79.96% # Type of FU issued
system.switch_cpus.iq.FU_type_0::SimdSha1Hash2            0      0.00%     79.96% # Type of FU issued
system.switch_cpus.iq.FU_type_0::SimdSha256Hash            0      0.00%     79.96% # Type of FU issued
system.switch_cpus.iq.FU_type_0::SimdSha256Hash2            0      0.00%     79.96% # Type of FU issued
system.switch_cpus.iq.FU_type_0::SimdShaSigma2            0      0.00%     79.96% # Type of FU issued
system.switch_cpus.iq.FU_type_0::SimdShaSigma3            0      0.00%     79.96% # Type of FU issued
system.switch_cpus.iq.FU_type_0::SimdPredAlu            0      0.00%     79.96% # Type of FU issued
system.switch_cpus.iq.FU_type_0::MemRead    115702006     11.06%     91.02% # Type of FU issued
system.switch_cpus.iq.FU_type_0::MemWrite     62580461      5.98%     97.00% # Type of FU issued
system.switch_cpus.iq.FU_type_0::FloatMemRead     22219817      2.12%     99.12% # Type of FU issued
system.switch_cpus.iq.FU_type_0::FloatMemWrite      9159993      0.88%    100.00% # Type of FU issued
system.switch_cpus.iq.FU_type_0::IprAccess            0      0.00%    100.00% # Type of FU issued
system.switch_cpus.iq.FU_type_0::InstPrefetch            0      0.00%    100.00% # Type of FU issued
system.switch_cpus.iq.FU_type_0::total     1046417806                       # Type of FU issued
system.switch_cpus.iq.fp_alu_accesses        61011163                       # Number of floating point alu accesses
system.switch_cpus.iq.fp_inst_queue_reads    122482297                       # Number of floating instruction queue reads
system.switch_cpus.iq.fp_inst_queue_wakeup_accesses     50847625                       # Number of floating instruction queue wakeup accesses
system.switch_cpus.iq.fp_inst_queue_writes     59496491                       # Number of floating instruction queue writes
system.switch_cpus.iq.fu_busy_cnt                   0                       # FU busy when requested
system.switch_cpus.iq.fu_busy_rate                  0                       # FU busy rate (busy events/executed inst)
system.switch_cpus.iq.fu_full::No_OpClass            0                       # attempts to use FU when none available
system.switch_cpus.iq.fu_full::IntAlu               0                       # attempts to use FU when none available
system.switch_cpus.iq.fu_full::IntMult              0                       # attempts to use FU when none available
system.switch_cpus.iq.fu_full::IntDiv               0                       # attempts to use FU when none available
system.switch_cpus.iq.fu_full::FloatAdd             0                       # attempts to use FU when none available
system.switch_cpus.iq.fu_full::FloatCmp             0                       # attempts to use FU when none available
system.switch_cpus.iq.fu_full::FloatCvt             0                       # attempts to use FU when none available
system.switch_cpus.iq.fu_full::FloatMult            0                       # attempts to use FU when none available
system.switch_cpus.iq.fu_full::FloatMultAcc            0                       # attempts to use FU when none available
system.switch_cpus.iq.fu_full::FloatDiv             0                       # attempts to use FU when none available
system.switch_cpus.iq.fu_full::FloatMisc            0                       # attempts to use FU when none available
system.switch_cpus.iq.fu_full::FloatSqrt            0                       # attempts to use FU when none available
system.switch_cpus.iq.fu_full::SimdAdd              0                       # attempts to use FU when none available
system.switch_cpus.iq.fu_full::SimdAddAcc            0                       # attempts to use FU when none available
system.switch_cpus.iq.fu_full::SimdAlu              0                       # attempts to use FU when none available
system.switch_cpus.iq.fu_full::SimdCmp              0                       # attempts to use FU when none available
system.switch_cpus.iq.fu_full::SimdCvt              0                       # attempts to use FU when none available
system.switch_cpus.iq.fu_full::SimdMisc             0                       # attempts to use FU when none available
system.switch_cpus.iq.fu_full::SimdMult             0                       # attempts to use FU when none available
system.switch_cpus.iq.fu_full::SimdMultAcc            0                       # attempts to use FU when none available
system.switch_cpus.iq.fu_full::SimdShift            0                       # attempts to use FU when none available
system.switch_cpus.iq.fu_full::SimdShiftAcc            0                       # attempts to use FU when none available
system.switch_cpus.iq.fu_full::SimdDiv              0                       # attempts to use FU when none available
system.switch_cpus.iq.fu_full::SimdSqrt             0                       # attempts to use FU when none available
system.switch_cpus.iq.fu_full::SimdFloatAdd            0                       # attempts to use FU when none available
system.switch_cpus.iq.fu_full::SimdFloatAlu            0                       # attempts to use FU when none available
system.switch_cpus.iq.fu_full::SimdFloatCmp            0                       # attempts to use FU when none available
system.switch_cpus.iq.fu_full::SimdFloatCvt            0                       # attempts to use FU when none available
system.switch_cpus.iq.fu_full::SimdFloatDiv            0                       # attempts to use FU when none available
system.switch_cpus.iq.fu_full::SimdFloatMisc            0                       # attempts to use FU when none available
system.switch_cpus.iq.fu_full::SimdFloatMult            0                       # attempts to use FU when none available
system.switch_cpus.iq.fu_full::SimdFloatMultAcc            0                       # attempts to use FU when none available
system.switch_cpus.iq.fu_full::SimdFloatSqrt            0                       # attempts to use FU when none available
system.switch_cpus.iq.fu_full::SimdReduceAdd            0                       # attempts to use FU when none available
system.switch_cpus.iq.fu_full::SimdReduceAlu            0                       # attempts to use FU when none available
system.switch_cpus.iq.fu_full::SimdReduceCmp            0                       # attempts to use FU when none available
system.switch_cpus.iq.fu_full::SimdFloatReduceAdd            0                       # attempts to use FU when none available
system.switch_cpus.iq.fu_full::SimdFloatReduceCmp            0                       # attempts to use FU when none available
system.switch_cpus.iq.fu_full::SimdAes              0                       # attempts to use FU when none available
system.switch_cpus.iq.fu_full::SimdAesMix            0                       # attempts to use FU when none available
system.switch_cpus.iq.fu_full::SimdSha1Hash            0                       # attempts to use FU when none available
system.switch_cpus.iq.fu_full::SimdSha1Hash2            0                       # attempts to use FU when none available
system.switch_cpus.iq.fu_full::SimdSha256Hash            0                       # attempts to use FU when none available
system.switch_cpus.iq.fu_full::SimdSha256Hash2            0                       # attempts to use FU when none available
system.switch_cpus.iq.fu_full::SimdShaSigma2            0                       # attempts to use FU when none available
system.switch_cpus.iq.fu_full::SimdShaSigma3            0                       # attempts to use FU when none available
system.switch_cpus.iq.fu_full::SimdPredAlu            0                       # attempts to use FU when none available
system.switch_cpus.iq.fu_full::MemRead              0                       # attempts to use FU when none available
system.switch_cpus.iq.fu_full::MemWrite             0                       # attempts to use FU when none available
system.switch_cpus.iq.fu_full::FloatMemRead            0                       # attempts to use FU when none available
system.switch_cpus.iq.fu_full::FloatMemWrite            0                       # attempts to use FU when none available
system.switch_cpus.iq.fu_full::IprAccess            0                       # attempts to use FU when none available
system.switch_cpus.iq.fu_full::InstPrefetch            0                       # attempts to use FU when none available
system.switch_cpus.iq.int_alu_accesses      980023730                       # Number of integer alu accesses
system.switch_cpus.iq.int_inst_queue_reads   2709026439                       # Number of integer instruction queue reads
system.switch_cpus.iq.int_inst_queue_wakeup_accesses    961005230                       # Number of integer instruction queue wakeup accesses
system.switch_cpus.iq.int_inst_queue_writes   1191754180                       # Number of integer instruction queue writes
system.switch_cpus.iq.iqInstsAdded         1092994955                       # Number of instructions added to the IQ (excludes non-spec)
system.switch_cpus.iq.iqInstsIssued        1046417806                       # Number of instructions issued
system.switch_cpus.iq.iqNonSpecInstsAdded       142746                       # Number of non-speculative instructions added to the IQ
system.switch_cpus.iq.iqSquashedInstsExamined    158102969                       # Number of squashed instructions iterated over during squash; mainly for profiling
system.switch_cpus.iq.iqSquashedInstsIssued     11165453                       # Number of squashed instructions issued
system.switch_cpus.iq.iqSquashedNonSpecRemoved       142079                       # Number of squashed non-spec instructions that were removed
system.switch_cpus.iq.iqSquashedOperandsExamined    249996582                       # Number of squashed operands that are examined and possibly removed from graph
system.switch_cpus.iq.issued_per_cycle::samples    727507673                       # Number of insts issued each cycle
system.switch_cpus.iq.issued_per_cycle::mean     1.438360                       # Number of insts issued each cycle
system.switch_cpus.iq.issued_per_cycle::stdev     1.728017                       # Number of insts issued each cycle
system.switch_cpus.iq.issued_per_cycle::underflows            0      0.00%      0.00% # Number of insts issued each cycle
system.switch_cpus.iq.issued_per_cycle::0    393149480     54.04%     54.04% # Number of insts issued each cycle
system.switch_cpus.iq.issued_per_cycle::1     44967440      6.18%     60.22% # Number of insts issued each cycle
system.switch_cpus.iq.issued_per_cycle::2     47531684      6.53%     66.76% # Number of insts issued each cycle
system.switch_cpus.iq.issued_per_cycle::3     61049278      8.39%     75.15% # Number of insts issued each cycle
system.switch_cpus.iq.issued_per_cycle::4    180809791     24.85%    100.00% # Number of insts issued each cycle
system.switch_cpus.iq.issued_per_cycle::overflows            0      0.00%    100.00% # Number of insts issued each cycle
system.switch_cpus.iq.issued_per_cycle::min_value            0                       # Number of insts issued each cycle
system.switch_cpus.iq.issued_per_cycle::max_value            4                       # Number of insts issued each cycle
system.switch_cpus.iq.issued_per_cycle::total    727507673                       # Number of insts issued each cycle
system.switch_cpus.iq.rate                   1.339447                       # Inst issue rate
system.switch_cpus.iq.vec_alu_accesses              0                       # Number of vector alu accesses
system.switch_cpus.iq.vec_inst_queue_reads            0                       # Number of vector instruction queue reads
system.switch_cpus.iq.vec_inst_queue_wakeup_accesses            0                       # Number of vector instruction queue wakeup accesses
system.switch_cpus.iq.vec_inst_queue_writes            0                       # Number of vector instruction queue writes
system.switch_cpus.itb.rdAccesses                   0                       # TLB accesses on read requests
system.switch_cpus.itb.rdMisses                     0                       # TLB misses on read requests
system.switch_cpus.itb.wrAccesses           104781189                       # TLB accesses on write requests
system.switch_cpus.itb.wrMisses                 48339                       # TLB misses on write requests
system.switch_cpus.memDep0.conflictingLoads      3249299                       # Number of conflicting loads.
system.switch_cpus.memDep0.conflictingStores      2726201                       # Number of conflicting stores.
system.switch_cpus.memDep0.insertedLoads    130695325                       # Number of loads inserted to the mem dependence unit.
system.switch_cpus.memDep0.insertedStores     75408467                       # Number of stores inserted to the mem dependence unit.
system.switch_cpus.misc_regfile_reads       440066478                       # number of misc regfile reads
system.switch_cpus.numCycles                781231108                       # number of cpu cycles simulated
system.switch_cpus.numWorkItemsCompleted            0                       # number of work items this cpu completed
system.switch_cpus.numWorkItemsStarted              0                       # number of work items this cpu started
system.switch_cpus.rename.BlockCycles        40174493                       # Number of cycles rename is blocking
system.switch_cpus.rename.CommittedMaps    1067129663                       # Number of HB maps that are committed
system.switch_cpus.rename.FullRegisterEvents            6                       # Number of times there has been no free registers
system.switch_cpus.rename.IQFullEvents        3180935                       # Number of times rename has blocked due to IQ full
system.switch_cpus.rename.IdleCycles        267945621                       # Number of cycles rename is idle
system.switch_cpus.rename.LQFullEvents         170659                       # Number of times rename has blocked due to LQ full
system.switch_cpus.rename.ROBFullEvents         39540                       # Number of times rename has blocked due to ROB full
system.switch_cpus.rename.RenameLookups    2945559445                       # Number of register rename lookups that rename has made
system.switch_cpus.rename.RenamedInsts     1140824692                       # Number of instructions processed by rename
system.switch_cpus.rename.RenamedOperands   1309836360                       # Number of destination operands rename has renamed
system.switch_cpus.rename.RunCycles         297103356                       # Number of cycles rename is running
system.switch_cpus.rename.SQFullEvents      108833934                       # Number of times rename has blocked due to SQ full
system.switch_cpus.rename.SquashCycles        8673270                       # Number of cycles rename is squashing
system.switch_cpus.rename.UnblockCycles     113518762                       # Number of cycles rename is unblocking
system.switch_cpus.rename.UndoneMaps        242706595                       # Number of HB maps that are undone due to squashing
system.switch_cpus.rename.fp_rename_lookups     68609532                       # Number of floating rename lookups
system.switch_cpus.rename.int_rename_lookups   1699381644                       # Number of integer rename lookups
system.switch_cpus.rename.serializeStallCycles        92165                       # count of cycles rename stalled for serializing inst
system.switch_cpus.rename.serializingInsts         5018                       # count of serializing insts renamed
system.switch_cpus.rename.skidInsts          16251915                       # count of insts added to the skid buffer
system.switch_cpus.rename.tempSerializingInsts         5364                       # count of temporary serializing insts renamed
system.switch_cpus.rob.rob_reads           1758344394                       # The number of ROB reads
system.switch_cpus.rob.rob_writes          2206034395                       # The number of ROB writes
system.switch_cpus.timesIdled                 7775307                       # Number of times that the entire CPU went into an idle state and unscheduled itself
system.tol2bus.snoop_filter.hit_multi_requests         1985                       # Number of requests hitting in the snoop filter with multiple (>1) holders of the requested data.
system.tol2bus.snoop_filter.hit_multi_snoops           86                       # Number of snoops hitting in the snoop filter with multiple (>1) holders of the requested data.
system.tol2bus.snoop_filter.hit_single_requests     14015694                       # Number of requests hitting in the snoop filter with a single holder of the requested data.
system.tol2bus.snoop_filter.hit_single_snoops        37237                       # Number of snoops hitting in the snoop filter with a single holder of the requested data.
system.tol2bus.snoop_filter.tot_requests     27992367                       # Total number of requests made to the snoop filter.
system.tol2bus.snoop_filter.tot_snoops          37323                       # Total number of snoops made to the snoop filter.
system.membus.pwrStateResidencyTicks::UNDEFINED 1527682042500                       # Cumulative time (in ticks) in various power states
system.membus.trans_dist::ReadResp             163985                       # Transaction distribution
system.membus.trans_dist::WritebackDirty       724500                       # Transaction distribution
system.membus.trans_dist::CleanEvict           129238                       # Transaction distribution
system.membus.trans_dist::UpgradeReq               15                       # Transaction distribution
system.membus.trans_dist::ReadExReq            689884                       # Transaction distribution
system.membus.trans_dist::ReadExResp           689884                       # Transaction distribution
system.membus.trans_dist::ReadSharedReq        163985                       # Transaction distribution
system.membus.pkt_count_system.l2.mem_side::system.mem_ctrls.port      2561491                       # Packet count per connected master and slave (bytes)
system.membus.pkt_count_system.l2.mem_side::total      2561491                       # Packet count per connected master and slave (bytes)
system.membus.pkt_count::total                2561491                       # Packet count per connected master and slave (bytes)
system.membus.pkt_size_system.l2.mem_side::system.mem_ctrls.port    101015616                       # Cumulative packet size per connected master and slave (bytes)
system.membus.pkt_size_system.l2.mem_side::total    101015616                       # Cumulative packet size per connected master and slave (bytes)
system.membus.pkt_size::total               101015616                       # Cumulative packet size per connected master and slave (bytes)
system.membus.snoops                                0                       # Total snoops (count)
system.membus.snoopTraffic                          0                       # Total snoop traffic (bytes)
system.membus.snoop_fanout::samples            853884                       # Request fanout histogram
system.membus.snoop_fanout::mean                    0                       # Request fanout histogram
system.membus.snoop_fanout::stdev                   0                       # Request fanout histogram
system.membus.snoop_fanout::underflows              0      0.00%      0.00% # Request fanout histogram
system.membus.snoop_fanout::0                  853884    100.00%    100.00% # Request fanout histogram
system.membus.snoop_fanout::1                       0      0.00%    100.00% # Request fanout histogram
system.membus.snoop_fanout::overflows               0      0.00%    100.00% # Request fanout histogram
system.membus.snoop_fanout::min_value               0                       # Request fanout histogram
system.membus.snoop_fanout::max_value               0                       # Request fanout histogram
system.membus.snoop_fanout::total              853884                       # Request fanout histogram
system.membus.reqLayer2.occupancy          4944410322                       # Layer occupancy (ticks)
system.membus.reqLayer2.utilization               1.3                       # Layer utilization (%)
system.membus.respLayer1.occupancy         4519035619                       # Layer occupancy (ticks)
system.membus.respLayer1.utilization              1.2                       # Layer utilization (%)
system.switch_cpus.pwrStateResidencyTicks::OFF 1527682042500                       # Cumulative time (in ticks) in various power states
system.switch_cpus.dtb.walker.pwrStateResidencyTicks::UNDEFINED 1527682042500                       # Cumulative time (in ticks) in various power states
system.switch_cpus.itb.walker.pwrStateResidencyTicks::UNDEFINED 1527682042500                       # Cumulative time (in ticks) in various power states
system.tol2bus.pwrStateResidencyTicks::UNDEFINED 1527682042500                       # Cumulative time (in ticks) in various power states
system.tol2bus.trans_dist::ReadResp          13200120                       # Transaction distribution
system.tol2bus.trans_dist::WritebackDirty      1607556                       # Transaction distribution
system.tol2bus.trans_dist::WritebackClean     12187865                       # Transaction distribution
system.tol2bus.trans_dist::CleanEvict         1034502                       # Transaction distribution
system.tol2bus.trans_dist::UpgradeReq             242                       # Transaction distribution
system.tol2bus.trans_dist::UpgradeResp            242                       # Transaction distribution
system.tol2bus.trans_dist::ReadExReq           747132                       # Transaction distribution
system.tol2bus.trans_dist::ReadExResp          747132                       # Transaction distribution
system.tol2bus.trans_dist::ReadCleanReq      12188097                       # Transaction distribution
system.tol2bus.trans_dist::ReadSharedReq      1012024                       # Transaction distribution
system.tol2bus.pkt_count_system.cpu.icache.mem_side::system.l2.cpu_side     36563816                       # Packet count per connected master and slave (bytes)
system.tol2bus.pkt_count_system.cpu.dcache.mem_side::system.l2.cpu_side      5277950                       # Packet count per connected master and slave (bytes)
system.tol2bus.pkt_count::total              41841766                       # Packet count per connected master and slave (bytes)
system.tol2bus.pkt_size_system.cpu.icache.mem_side::system.l2.cpu_side   1560046016                       # Cumulative packet size per connected master and slave (bytes)
system.tol2bus.pkt_size_system.cpu.dcache.mem_side::system.l2.cpu_side    169101504                       # Cumulative packet size per connected master and slave (bytes)
system.tol2bus.pkt_size::total             1729147520                       # Cumulative packet size per connected master and slave (bytes)
system.tol2bus.snoops                          883146                       # Total snoops (count)
system.tol2bus.snoopTraffic                  46383552                       # Total snoop traffic (bytes)
system.tol2bus.snoop_fanout::samples         14859687                       # Request fanout histogram
system.tol2bus.snoop_fanout::mean            0.002658                       # Request fanout histogram
system.tol2bus.snoop_fanout::stdev           0.051598                       # Request fanout histogram
system.tol2bus.snoop_fanout::underflows             0      0.00%      0.00% # Request fanout histogram
system.tol2bus.snoop_fanout::0               14820278     99.73%     99.73% # Request fanout histogram
system.tol2bus.snoop_fanout::1                  39323      0.26%    100.00% # Request fanout histogram
system.tol2bus.snoop_fanout::2                     86      0.00%    100.00% # Request fanout histogram
system.tol2bus.snoop_fanout::3                      0      0.00%    100.00% # Request fanout histogram
system.tol2bus.snoop_fanout::4                      0      0.00%    100.00% # Request fanout histogram
system.tol2bus.snoop_fanout::overflows              0      0.00%    100.00% # Request fanout histogram
system.tol2bus.snoop_fanout::min_value              0                       # Request fanout histogram
system.tol2bus.snoop_fanout::max_value              2                       # Request fanout histogram
system.tol2bus.snoop_fanout::total           14859687                       # Request fanout histogram
system.tol2bus.reqLayer0.occupancy        27115512989                       # Layer occupancy (ticks)
system.tol2bus.reqLayer0.utilization              6.9                       # Layer utilization (%)
system.tol2bus.respLayer1.occupancy        2639024158                       # Layer occupancy (ticks)
system.tol2bus.respLayer1.utilization             0.7                       # Layer utilization (%)
system.tol2bus.respLayer0.occupancy       18282429540                       # Layer occupancy (ticks)
system.tol2bus.respLayer0.utilization             4.7                       # Layer utilization (%)
system.voltage_domain.voltage                       1                       # Voltage in Volts
system.clk_domain.clock                          1000                       # Clock period in ticks
system.l2.pwrStateResidencyTicks::UNDEFINED 1527682042500                       # Cumulative time (in ticks) in various power states
system.l2.demand_hits::.switch_cpus.inst     12164553                       # number of demand (read+write) hits
system.l2.demand_hits::.switch_cpus.data       928588                       # number of demand (read+write) hits
system.l2.demand_hits::total                 13093141                       # number of demand (read+write) hits
system.l2.overall_hits::.switch_cpus.inst     12164553                       # number of overall hits
system.l2.overall_hits::.switch_cpus.data       928588                       # number of overall hits
system.l2.overall_hits::total                13093141                       # number of overall hits
system.l2.demand_misses::.switch_cpus.inst        23301                       # number of demand (read+write) misses
system.l2.demand_misses::.switch_cpus.data       830568                       # number of demand (read+write) misses
system.l2.demand_misses::total                 853869                       # number of demand (read+write) misses
system.l2.overall_misses::.switch_cpus.inst        23301                       # number of overall misses
system.l2.overall_misses::.switch_cpus.data       830568                       # number of overall misses
system.l2.overall_misses::total                853869                       # number of overall misses
system.l2.demand_miss_latency::.switch_cpus.inst   1975080465                       # number of demand (read+write) miss cycles
system.l2.demand_miss_latency::.switch_cpus.data  65582999457                       # number of demand (read+write) miss cycles
system.l2.demand_miss_latency::total      67558079922                       # number of demand (read+write) miss cycles
system.l2.overall_miss_latency::.switch_cpus.inst   1975080465                       # number of overall miss cycles
system.l2.overall_miss_latency::.switch_cpus.data  65582999457                       # number of overall miss cycles
system.l2.overall_miss_latency::total     67558079922                       # number of overall miss cycles
system.l2.demand_accesses::.switch_cpus.inst     12187854                       # number of demand (read+write) accesses
system.l2.demand_accesses::.switch_cpus.data      1759156                       # number of demand (read+write) accesses
system.l2.demand_accesses::total             13947010                       # number of demand (read+write) accesses
system.l2.overall_accesses::.switch_cpus.inst     12187854                       # number of overall (read+write) accesses
system.l2.overall_accesses::.switch_cpus.data      1759156                       # number of overall (read+write) accesses
system.l2.overall_accesses::total            13947010                       # number of overall (read+write) accesses
system.l2.demand_miss_rate::.switch_cpus.inst     0.001912                       # miss rate for demand accesses
system.l2.demand_miss_rate::.switch_cpus.data     0.472140                       # miss rate for demand accesses
system.l2.demand_miss_rate::total            0.061222                       # miss rate for demand accesses
system.l2.overall_miss_rate::.switch_cpus.inst     0.001912                       # miss rate for overall accesses
system.l2.overall_miss_rate::.switch_cpus.data     0.472140                       # miss rate for overall accesses
system.l2.overall_miss_rate::total           0.061222                       # miss rate for overall accesses
system.l2.demand_avg_miss_latency::.switch_cpus.inst 84763.764002                       # average overall miss latency
system.l2.demand_avg_miss_latency::.switch_cpus.data 78961.625607                       # average overall miss latency
system.l2.demand_avg_miss_latency::total 79119.958591                       # average overall miss latency
system.l2.overall_avg_miss_latency::.switch_cpus.inst 84763.764002                       # average overall miss latency
system.l2.overall_avg_miss_latency::.switch_cpus.data 78961.625607                       # average overall miss latency
system.l2.overall_avg_miss_latency::total 79119.958591                       # average overall miss latency
system.l2.blocked_cycles::no_mshrs          118014850                       # number of cycles access was blocked
system.l2.blocked_cycles::no_targets                0                       # number of cycles access was blocked
system.l2.blocked::no_mshrs                    853884                       # number of cycles access was blocked
system.l2.blocked::no_targets                       0                       # number of cycles access was blocked
system.l2.avg_blocked_cycles::no_mshrs     138.209464                       # average number of cycles each access was blocked
system.l2.avg_blocked_cycles::no_targets          nan                       # average number of cycles each access was blocked
system.l2.writebacks::.writebacks              724500                       # number of writebacks
system.l2.writebacks::total                    724500                       # number of writebacks
system.l2.demand_mshr_misses::.switch_cpus.inst        23301                       # number of demand (read+write) MSHR misses
system.l2.demand_mshr_misses::.switch_cpus.data       830568                       # number of demand (read+write) MSHR misses
system.l2.demand_mshr_misses::total            853869                       # number of demand (read+write) MSHR misses
system.l2.overall_mshr_misses::.switch_cpus.inst        23301                       # number of overall MSHR misses
system.l2.overall_mshr_misses::.switch_cpus.data       830568                       # number of overall MSHR misses
system.l2.overall_mshr_misses::total           853869                       # number of overall MSHR misses
system.l2.demand_mshr_miss_latency::.switch_cpus.inst   1742070465                       # number of demand (read+write) MSHR miss cycles
system.l2.demand_mshr_miss_latency::.switch_cpus.data  57277319457                       # number of demand (read+write) MSHR miss cycles
system.l2.demand_mshr_miss_latency::total  59019389922                       # number of demand (read+write) MSHR miss cycles
system.l2.overall_mshr_miss_latency::.switch_cpus.inst   1742070465                       # number of overall MSHR miss cycles
system.l2.overall_mshr_miss_latency::.switch_cpus.data  57277319457                       # number of overall MSHR miss cycles
system.l2.overall_mshr_miss_latency::total  59019389922                       # number of overall MSHR miss cycles
system.l2.demand_mshr_miss_rate::.switch_cpus.inst     0.001912                       # mshr miss rate for demand accesses
system.l2.demand_mshr_miss_rate::.switch_cpus.data     0.472140                       # mshr miss rate for demand accesses
system.l2.demand_mshr_miss_rate::total       0.061222                       # mshr miss rate for demand accesses
system.l2.overall_mshr_miss_rate::.switch_cpus.inst     0.001912                       # mshr miss rate for overall accesses
system.l2.overall_mshr_miss_rate::.switch_cpus.data     0.472140                       # mshr miss rate for overall accesses
system.l2.overall_mshr_miss_rate::total      0.061222                       # mshr miss rate for overall accesses
system.l2.demand_avg_mshr_miss_latency::.switch_cpus.inst 74763.764002                       # average overall mshr miss latency
system.l2.demand_avg_mshr_miss_latency::.switch_cpus.data 68961.625607                       # average overall mshr miss latency
system.l2.demand_avg_mshr_miss_latency::total 69119.958591                       # average overall mshr miss latency
system.l2.overall_avg_mshr_miss_latency::.switch_cpus.inst 74763.764002                       # average overall mshr miss latency
system.l2.overall_avg_mshr_miss_latency::.switch_cpus.data 68961.625607                       # average overall mshr miss latency
system.l2.overall_avg_mshr_miss_latency::total 69119.958591                       # average overall mshr miss latency
system.l2.replacements                         882903                       # number of replacements
system.l2.WritebackDirty_hits::.writebacks       883056                       # number of WritebackDirty hits
system.l2.WritebackDirty_hits::total           883056                       # number of WritebackDirty hits
system.l2.WritebackDirty_accesses::.writebacks       883056                       # number of WritebackDirty accesses(hits+misses)
system.l2.WritebackDirty_accesses::total       883056                       # number of WritebackDirty accesses(hits+misses)
system.l2.WritebackClean_hits::.writebacks     12187847                       # number of WritebackClean hits
system.l2.WritebackClean_hits::total         12187847                       # number of WritebackClean hits
system.l2.WritebackClean_accesses::.writebacks     12187847                       # number of WritebackClean accesses(hits+misses)
system.l2.WritebackClean_accesses::total     12187847                       # number of WritebackClean accesses(hits+misses)
system.l2.CleanEvict_mshr_misses::.writebacks         8153                       # number of CleanEvict MSHR misses
system.l2.CleanEvict_mshr_misses::total          8153                       # number of CleanEvict MSHR misses
system.l2.CleanEvict_mshr_miss_rate::.writebacks          inf                       # mshr miss rate for CleanEvict accesses
system.l2.CleanEvict_mshr_miss_rate::total          inf                       # mshr miss rate for CleanEvict accesses
system.l2.UpgradeReq_hits::.switch_cpus.data          227                       # number of UpgradeReq hits
system.l2.UpgradeReq_hits::total                  227                       # number of UpgradeReq hits
system.l2.UpgradeReq_misses::.switch_cpus.data           15                       # number of UpgradeReq misses
system.l2.UpgradeReq_misses::total                 15                       # number of UpgradeReq misses
system.l2.UpgradeReq_accesses::.switch_cpus.data          242                       # number of UpgradeReq accesses(hits+misses)
system.l2.UpgradeReq_accesses::total              242                       # number of UpgradeReq accesses(hits+misses)
system.l2.UpgradeReq_miss_rate::.switch_cpus.data     0.061983                       # miss rate for UpgradeReq accesses
system.l2.UpgradeReq_miss_rate::total        0.061983                       # miss rate for UpgradeReq accesses
system.l2.UpgradeReq_mshr_misses::.switch_cpus.data           15                       # number of UpgradeReq MSHR misses
system.l2.UpgradeReq_mshr_misses::total            15                       # number of UpgradeReq MSHR misses
system.l2.UpgradeReq_mshr_miss_latency::.switch_cpus.data       299500                       # number of UpgradeReq MSHR miss cycles
system.l2.UpgradeReq_mshr_miss_latency::total       299500                       # number of UpgradeReq MSHR miss cycles
system.l2.UpgradeReq_mshr_miss_rate::.switch_cpus.data     0.061983                       # mshr miss rate for UpgradeReq accesses
system.l2.UpgradeReq_mshr_miss_rate::total     0.061983                       # mshr miss rate for UpgradeReq accesses
system.l2.UpgradeReq_avg_mshr_miss_latency::.switch_cpus.data 19966.666667                       # average UpgradeReq mshr miss latency
system.l2.UpgradeReq_avg_mshr_miss_latency::total 19966.666667                       # average UpgradeReq mshr miss latency
system.l2.ReadExReq_hits::.switch_cpus.data        57248                       # number of ReadExReq hits
system.l2.ReadExReq_hits::total                 57248                       # number of ReadExReq hits
system.l2.ReadExReq_misses::.switch_cpus.data       689884                       # number of ReadExReq misses
system.l2.ReadExReq_misses::total              689884                       # number of ReadExReq misses
system.l2.ReadExReq_miss_latency::.switch_cpus.data  54404899660                       # number of ReadExReq miss cycles
system.l2.ReadExReq_miss_latency::total   54404899660                       # number of ReadExReq miss cycles
system.l2.ReadExReq_accesses::.switch_cpus.data       747132                       # number of ReadExReq accesses(hits+misses)
system.l2.ReadExReq_accesses::total            747132                       # number of ReadExReq accesses(hits+misses)
system.l2.ReadExReq_miss_rate::.switch_cpus.data     0.923376                       # miss rate for ReadExReq accesses
system.l2.ReadExReq_miss_rate::total         0.923376                       # miss rate for ReadExReq accesses
system.l2.ReadExReq_avg_miss_latency::.switch_cpus.data 78860.938448                       # average ReadExReq miss latency
system.l2.ReadExReq_avg_miss_latency::total 78860.938448                       # average ReadExReq miss latency
system.l2.ReadExReq_mshr_misses::.switch_cpus.data       689884                       # number of ReadExReq MSHR misses
system.l2.ReadExReq_mshr_misses::total         689884                       # number of ReadExReq MSHR misses
system.l2.ReadExReq_mshr_miss_latency::.switch_cpus.data  47506059660                       # number of ReadExReq MSHR miss cycles
system.l2.ReadExReq_mshr_miss_latency::total  47506059660                       # number of ReadExReq MSHR miss cycles
system.l2.ReadExReq_mshr_miss_rate::.switch_cpus.data     0.923376                       # mshr miss rate for ReadExReq accesses
system.l2.ReadExReq_mshr_miss_rate::total     0.923376                       # mshr miss rate for ReadExReq accesses
system.l2.ReadExReq_avg_mshr_miss_latency::.switch_cpus.data 68860.938448                       # average ReadExReq mshr miss latency
system.l2.ReadExReq_avg_mshr_miss_latency::total 68860.938448                       # average ReadExReq mshr miss latency
system.l2.ReadCleanReq_hits::.switch_cpus.inst     12164553                       # number of ReadCleanReq hits
system.l2.ReadCleanReq_hits::total           12164553                       # number of ReadCleanReq hits
system.l2.ReadCleanReq_misses::.switch_cpus.inst        23301                       # number of ReadCleanReq misses
system.l2.ReadCleanReq_misses::total            23301                       # number of ReadCleanReq misses
system.l2.ReadCleanReq_miss_latency::.switch_cpus.inst   1975080465                       # number of ReadCleanReq miss cycles
system.l2.ReadCleanReq_miss_latency::total   1975080465                       # number of ReadCleanReq miss cycles
system.l2.ReadCleanReq_accesses::.switch_cpus.inst     12187854                       # number of ReadCleanReq accesses(hits+misses)
system.l2.ReadCleanReq_accesses::total       12187854                       # number of ReadCleanReq accesses(hits+misses)
system.l2.ReadCleanReq_miss_rate::.switch_cpus.inst     0.001912                       # miss rate for ReadCleanReq accesses
[...]
system.cpu.itb_walker_cache.tags.warmup_cycle            0                       # Cycle when the warmup percentage was hit.
system.cpu.itb_walker_cache.tags.tag_accesses            0                       # Number of tag accesses
system.cpu.itb_walker_cache.tags.data_accesses            0                       # Number of data accesses
system.cpu.itb.walker.pwrStateResidencyTicks::UNDEFINED 1527682042500                       # Cumulative time (in ticks) in various power states
system.cpu.dtb_walker_cache.pwrStateResidencyTicks::UNDEFINED 1527682042500                       # Cumulative time (in ticks) in various power states
system.cpu.dtb_walker_cache.blocked_cycles::no_mshrs            0                       # number of cycles access was blocked
system.cpu.dtb_walker_cache.blocked_cycles::no_targets            0                       # number of cycles access was blocked
system.cpu.dtb_walker_cache.blocked::no_mshrs            0                       # number of cycles access was blocked
system.cpu.dtb_walker_cache.blocked::no_targets            0                       # number of cycles access was blocked
system.cpu.dtb_walker_cache.avg_blocked_cycles::no_mshrs          nan                       # average number of cycles each access was blocked
system.cpu.dtb_walker_cache.avg_blocked_cycles::no_targets          nan                       # average number of cycles each access was blocked
system.cpu.dtb_walker_cache.replacements            0                       # number of replacements
system.cpu.dtb_walker_cache.tags.pwrStateResidencyTicks::UNDEFINED 1527682042500                       # Cumulative time (in ticks) in various power states
system.cpu.dtb_walker_cache.tags.tagsinuse            0                       # Cycle average of tags in use
system.cpu.dtb_walker_cache.tags.total_refs            0                       # Total number of references to valid blocks.
system.cpu.dtb_walker_cache.tags.sampled_refs            0                       # Sample count of references to valid blocks.
system.cpu.dtb_walker_cache.tags.avg_refs          nan                       # Average number of references to valid blocks.
system.cpu.dtb_walker_cache.tags.warmup_cycle            0                       # Cycle when the warmup percentage was hit.
system.cpu.dtb_walker_cache.tags.tag_accesses            0                       # Number of tag accesses
system.cpu.dtb_walker_cache.tags.data_accesses            0                       # Number of data accesses
system.cpu.dcache.pwrStateResidencyTicks::UNDEFINED 1527682042500                       # Cumulative time (in ticks) in various power states
system.cpu.dcache.demand_hits::.cpu.data    370493329                       # number of demand (read+write) hits
system.cpu.dcache.demand_hits::.switch_cpus.data    177324873                       # number of demand (read+write) hits
system.cpu.dcache.demand_hits::total        547818202                       # number of demand (read+write) hits
system.cpu.dcache.overall_hits::.cpu.data    370493550                       # number of overall hits
system.cpu.dcache.overall_hits::.switch_cpus.data    177692418                       # number of overall hits
system.cpu.dcache.overall_hits::total       548185968                       # number of overall hits
system.cpu.dcache.demand_misses::.cpu.data       460211                       # number of demand (read+write) misses
system.cpu.dcache.demand_misses::.switch_cpus.data      1742655                       # number of demand (read+write) misses
system.cpu.dcache.demand_misses::total        2202866                       # number of demand (read+write) misses
system.cpu.dcache.overall_misses::.cpu.data       460420                       # number of overall misses
system.cpu.dcache.overall_misses::.switch_cpus.data      1759398                       # number of overall misses
system.cpu.dcache.overall_misses::total       2219818                       # number of overall misses
system.cpu.dcache.demand_miss_latency::.switch_cpus.data  79100898198                       # number of demand (read+write) miss cycles
system.cpu.dcache.demand_miss_latency::total  79100898198                       # number of demand (read+write) miss cycles
system.cpu.dcache.overall_miss_latency::.switch_cpus.data  79100898198                       # number of overall miss cycles
system.cpu.dcache.overall_miss_latency::total  79100898198                       # number of overall miss cycles
system.cpu.dcache.demand_accesses::.cpu.data    370953540                       # number of demand (read+write) accesses
system.cpu.dcache.demand_accesses::.switch_cpus.data    179067528                       # number of demand (read+write) accesses
system.cpu.dcache.demand_accesses::total    550021068                       # number of demand (read+write) accesses
system.cpu.dcache.overall_accesses::.cpu.data    370953970                       # number of overall (read+write) accesses
system.cpu.dcache.overall_accesses::.switch_cpus.data    179451816                       # number of overall (read+write) accesses
system.cpu.dcache.overall_accesses::total    550405786                       # number of overall (read+write) accesses
system.cpu.dcache.demand_miss_rate::.cpu.data     0.001241                       # miss rate for demand accesses
system.cpu.dcache.demand_miss_rate::.switch_cpus.data     0.009732                       # miss rate for demand accesses
system.cpu.dcache.demand_miss_rate::total     0.004005                       # miss rate for demand accesses
system.cpu.dcache.overall_miss_rate::.cpu.data     0.001241                       # miss rate for overall accesses
system.cpu.dcache.overall_miss_rate::.switch_cpus.data     0.009804                       # miss rate for overall accesses
system.cpu.dcache.overall_miss_rate::total     0.004033                       # miss rate for overall accesses
system.cpu.dcache.demand_avg_miss_latency::.switch_cpus.data 45391.025876                       # average overall miss latency
system.cpu.dcache.demand_avg_miss_latency::total 35908.175167                       # average overall miss latency
system.cpu.dcache.overall_avg_miss_latency::.switch_cpus.data 44959.070204                       # average overall miss latency
system.cpu.dcache.overall_avg_miss_latency::total 35633.956567                       # average overall miss latency
system.cpu.dcache.blocked_cycles::no_mshrs    157280186                       # number of cycles access was blocked
system.cpu.dcache.blocked_cycles::no_targets            0                       # number of cycles access was blocked
system.cpu.dcache.blocked::no_mshrs           1759398                       # number of cycles access was blocked
system.cpu.dcache.blocked::no_targets               0                       # number of cycles access was blocked
system.cpu.dcache.avg_blocked_cycles::no_mshrs    89.394319                       # average number of cycles each access was blocked
system.cpu.dcache.avg_blocked_cycles::no_targets          nan                       # average number of cycles each access was blocked
system.cpu.dcache.writebacks::.writebacks      1093281                       # number of writebacks
system.cpu.dcache.writebacks::total           1093281                       # number of writebacks
system.cpu.dcache.demand_mshr_misses::.switch_cpus.data      1742655                       # number of demand (read+write) MSHR misses
system.cpu.dcache.demand_mshr_misses::total      1742655                       # number of demand (read+write) MSHR misses
system.cpu.dcache.overall_mshr_misses::.switch_cpus.data      1759398                       # number of overall MSHR misses
system.cpu.dcache.overall_mshr_misses::total      1759398                       # number of overall MSHR misses
system.cpu.dcache.demand_mshr_miss_latency::.switch_cpus.data  77358244198                       # number of demand (read+write) MSHR miss cycles
system.cpu.dcache.demand_mshr_miss_latency::total  77358244198                       # number of demand (read+write) MSHR miss cycles
system.cpu.dcache.overall_mshr_miss_latency::.switch_cpus.data  78649691698                       # number of overall MSHR miss cycles
system.cpu.dcache.overall_mshr_miss_latency::total  78649691698                       # number of overall MSHR miss cycles
system.cpu.dcache.demand_mshr_miss_rate::.switch_cpus.data     0.009732                       # mshr miss rate for demand accesses
system.cpu.dcache.demand_mshr_miss_rate::total     0.003168                       # mshr miss rate for demand accesses
system.cpu.dcache.overall_mshr_miss_rate::.switch_cpus.data     0.009804                       # mshr miss rate for overall accesses
system.cpu.dcache.overall_mshr_miss_rate::total     0.003197                       # mshr miss rate for overall accesses
system.cpu.dcache.demand_avg_mshr_miss_latency::.switch_cpus.data 44391.026450                       # average overall mshr miss latency
system.cpu.dcache.demand_avg_mshr_miss_latency::total 44391.026450                       # average overall mshr miss latency
system.cpu.dcache.overall_avg_mshr_miss_latency::.switch_cpus.data 44702.615155                       # average overall mshr miss latency
system.cpu.dcache.overall_avg_mshr_miss_latency::total 44702.615155                       # average overall mshr miss latency
system.cpu.dcache.replacements                2219319                       # number of replacements
system.cpu.dcache.ReadReq_hits::.cpu.data    226389997                       # number of ReadReq hits
system.cpu.dcache.ReadReq_hits::.switch_cpus.data    113289226                       # number of ReadReq hits
system.cpu.dcache.ReadReq_hits::total       339679223                       # number of ReadReq hits
system.cpu.dcache.ReadReq_misses::.cpu.data       274513                       # number of ReadReq misses
system.cpu.dcache.ReadReq_misses::.switch_cpus.data       995281                       # number of ReadReq misses
system.cpu.dcache.ReadReq_misses::total       1269794                       # number of ReadReq misses
system.cpu.dcache.ReadReq_miss_latency::.switch_cpus.data  21925204000                       # number of ReadReq miss cycles
system.cpu.dcache.ReadReq_miss_latency::total  21925204000                       # number of ReadReq miss cycles
system.cpu.dcache.ReadReq_accesses::.cpu.data    226664510                       # number of ReadReq accesses(hits+misses)
system.cpu.dcache.ReadReq_accesses::.switch_cpus.data    114284507                       # number of ReadReq accesses(hits+misses)
system.cpu.dcache.ReadReq_accesses::total    340949017                       # number of ReadReq accesses(hits+misses)
system.cpu.dcache.ReadReq_miss_rate::.cpu.data     0.001211                       # miss rate for ReadReq accesses
system.cpu.dcache.ReadReq_miss_rate::.switch_cpus.data     0.008709                       # miss rate for ReadReq accesses
system.cpu.dcache.ReadReq_miss_rate::total     0.003724                       # miss rate for ReadReq accesses
system.cpu.dcache.ReadReq_avg_miss_latency::.switch_cpus.data 22029.159604                       # average ReadReq miss latency
system.cpu.dcache.ReadReq_avg_miss_latency::total 17266.740904                       # average ReadReq miss latency
system.cpu.dcache.ReadReq_mshr_misses::.switch_cpus.data       995281                       # number of ReadReq MSHR misses
system.cpu.dcache.ReadReq_mshr_misses::total       995281                       # number of ReadReq MSHR misses
system.cpu.dcache.ReadReq_mshr_miss_latency::.switch_cpus.data  20929924000                       # number of ReadReq MSHR miss cycles
system.cpu.dcache.ReadReq_mshr_miss_latency::total  20929924000                       # number of ReadReq MSHR miss cycles
system.cpu.dcache.ReadReq_mshr_miss_rate::.switch_cpus.data     0.008709                       # mshr miss rate for ReadReq accesses
system.cpu.dcache.ReadReq_mshr_miss_rate::total     0.002919                       # mshr miss rate for ReadReq accesses
system.cpu.dcache.ReadReq_avg_mshr_miss_latency::.switch_cpus.data 21029.160609                       # average ReadReq mshr miss latency
system.cpu.dcache.ReadReq_avg_mshr_miss_latency::total 21029.160609                       # average ReadReq mshr miss latency
system.cpu.dcache.WriteReq_hits::.cpu.data    144103332                       # number of WriteReq hits
system.cpu.dcache.WriteReq_hits::.switch_cpus.data     64035647                       # number of WriteReq hits
system.cpu.dcache.WriteReq_hits::total      208138979                       # number of WriteReq hits
system.cpu.dcache.WriteReq_misses::.cpu.data       185698                       # number of WriteReq misses
system.cpu.dcache.WriteReq_misses::.switch_cpus.data       747374                       # number of WriteReq misses
system.cpu.dcache.WriteReq_misses::total       933072                       # number of WriteReq misses
system.cpu.dcache.WriteReq_miss_latency::.switch_cpus.data  57175694198                       # number of WriteReq miss cycles
system.cpu.dcache.WriteReq_miss_latency::total  57175694198                       # number of WriteReq miss cycles
system.cpu.dcache.WriteReq_accesses::.cpu.data    144289030                       # number of WriteReq accesses(hits+misses)
system.cpu.dcache.WriteReq_accesses::.switch_cpus.data     64783021                       # number of WriteReq accesses(hits+misses)
system.cpu.dcache.WriteReq_accesses::total    209072051                       # number of WriteReq accesses(hits+misses)
system.cpu.dcache.WriteReq_miss_rate::.cpu.data     0.001287                       # miss rate for WriteReq accesses
system.cpu.dcache.WriteReq_miss_rate::.switch_cpus.data     0.011537                       # miss rate for WriteReq accesses
system.cpu.dcache.WriteReq_miss_rate::total     0.004463                       # miss rate for WriteReq accesses
system.cpu.dcache.WriteReq_avg_miss_latency::.switch_cpus.data 76502.118348                       # average WriteReq miss latency
system.cpu.dcache.WriteReq_avg_miss_latency::total 61276.829867                       # average WriteReq miss latency
system.cpu.dcache.WriteReq_mshr_misses::.switch_cpus.data       747374                       # number of WriteReq MSHR misses
system.cpu.dcache.WriteReq_mshr_misses::total       747374                       # number of WriteReq MSHR misses
system.cpu.dcache.WriteReq_mshr_miss_latency::.switch_cpus.data  56428320198                       # number of WriteReq MSHR miss cycles
system.cpu.dcache.WriteReq_mshr_miss_latency::total  56428320198                       # number of WriteReq MSHR miss cycles
system.cpu.dcache.WriteReq_mshr_miss_rate::.switch_cpus.data     0.011537                       # mshr miss rate for WriteReq accesses
system.cpu.dcache.WriteReq_mshr_miss_rate::total     0.003575                       # mshr miss rate for WriteReq accesses
system.cpu.dcache.WriteReq_avg_mshr_miss_latency::.switch_cpus.data 75502.118348                       # average WriteReq mshr miss latency
system.cpu.dcache.WriteReq_avg_mshr_miss_latency::total 75502.118348                       # average WriteReq mshr miss latency
system.cpu.dcache.SoftPFReq_hits::.cpu.data          221                       # number of SoftPFReq hits
system.cpu.dcache.SoftPFReq_hits::.switch_cpus.data       367545                       # number of SoftPFReq hits
system.cpu.dcache.SoftPFReq_hits::total        367766                       # number of SoftPFReq hits
system.cpu.dcache.SoftPFReq_misses::.cpu.data          209                       # number of SoftPFReq misses
system.cpu.dcache.SoftPFReq_misses::.switch_cpus.data        16743                       # number of SoftPFReq misses
system.cpu.dcache.SoftPFReq_misses::total        16952                       # number of SoftPFReq misses
system.cpu.dcache.SoftPFReq_accesses::.cpu.data          430                       # number of SoftPFReq accesses(hits+misses)
system.cpu.dcache.SoftPFReq_accesses::.switch_cpus.data       384288                       # number of SoftPFReq accesses(hits+misses)
system.cpu.dcache.SoftPFReq_accesses::total       384718                       # number of SoftPFReq accesses(hits+misses)
system.cpu.dcache.SoftPFReq_miss_rate::.cpu.data     0.486047                       # miss rate for SoftPFReq accesses
system.cpu.dcache.SoftPFReq_miss_rate::.switch_cpus.data     0.043569                       # miss rate for SoftPFReq accesses
system.cpu.dcache.SoftPFReq_miss_rate::total     0.044063                       # miss rate for SoftPFReq accesses
system.cpu.dcache.SoftPFReq_mshr_misses::.switch_cpus.data        16743                       # number of SoftPFReq MSHR misses
system.cpu.dcache.SoftPFReq_mshr_misses::total        16743                       # number of SoftPFReq MSHR misses
system.cpu.dcache.SoftPFReq_mshr_miss_latency::.switch_cpus.data   1291447500                       # number of SoftPFReq MSHR miss cycles
system.cpu.dcache.SoftPFReq_mshr_miss_latency::total   1291447500                       # number of SoftPFReq MSHR miss cycles
system.cpu.dcache.SoftPFReq_mshr_miss_rate::.switch_cpus.data     0.043569                       # mshr miss rate for SoftPFReq accesses
system.cpu.dcache.SoftPFReq_mshr_miss_rate::total     0.043520                       # mshr miss rate for SoftPFReq accesses
system.cpu.dcache.SoftPFReq_avg_mshr_miss_latency::.switch_cpus.data 77133.578212                       # average SoftPFReq mshr miss latency
system.cpu.dcache.SoftPFReq_avg_mshr_miss_latency::total 77133.578212                       # average SoftPFReq mshr miss latency
system.cpu.dcache.tags.pwrStateResidencyTicks::UNDEFINED 1527682042500                       # Cumulative time (in ticks) in various power states
system.cpu.dcache.tags.tagsinuse           255.997712                       # Cycle average of tags in use
system.cpu.dcache.tags.total_refs           550393108                       # Total number of references to valid blocks.
system.cpu.dcache.tags.sampled_refs           2219319                       # Sample count of references to valid blocks.
system.cpu.dcache.tags.avg_refs            248.000899                       # Average number of references to valid blocks.
system.cpu.dcache.tags.warmup_cycle              1000                       # Cycle when the warmup percentage was hit.
system.cpu.dcache.tags.occ_blocks::.cpu.data   190.723898                       # Average occupied blocks per requestor
system.cpu.dcache.tags.occ_blocks::.switch_cpus.data    65.273814                       # Average occupied blocks per requestor
system.cpu.dcache.tags.occ_percent::.cpu.data     0.745015                       # Average percentage of cache occupancy
system.cpu.dcache.tags.occ_percent::.switch_cpus.data     0.254976                       # Average percentage of cache occupancy
system.cpu.dcache.tags.occ_percent::total     0.999991                       # Average percentage of cache occupancy
system.cpu.dcache.tags.occ_task_id_blocks::1024          256                       # Occupied blocks per task id
system.cpu.dcache.tags.age_task_id_blocks_1024::0          200                       # Occupied blocks per task id
system.cpu.dcache.tags.age_task_id_blocks_1024::1           55                       # Occupied blocks per task id
system.cpu.dcache.tags.age_task_id_blocks_1024::2            1                       # Occupied blocks per task id
system.cpu.dcache.tags.occ_task_id_percent::1024            1                       # Percentage of cache occupancy per task id
system.cpu.dcache.tags.tag_accesses        1103031147                       # Number of tag accesses
system.cpu.dcache.tags.data_accesses       1103031147                       # Number of data accesses

---------- End Simulation Statistics   ----------
