
---------- Begin Simulation Statistics ----------
final_tick                               1753780187500                       # Number of ticks from beginning of simulation (restored from checkpoints and never reset)
host_inst_rate                                 247756                       # Simulator instruction rate (inst/s)
host_mem_usage                                4666824                       # Number of bytes of host memory used
host_op_rate                                   492038                       # Simulator op (including micro ops) rate (op/s)
host_seconds                                  6054.34                       # Real time elapsed on the host
host_tick_rate                              108301170                       # Simulator tick rate (ticks/s)
sim_freq                                 1000000000000                       # Frequency of simulated ticks
sim_insts                                  1500000001                       # Number of instructions simulated
sim_ops                                    2978968013                       # Number of ops (including micro ops) simulated
sim_seconds                                  0.655692                       # Number of seconds simulated
sim_ticks                                655692347000                       # Number of ticks simulated
system.cpu.committedInsts                           0                       # Number of instructions committed
system.cpu.committedOps                             0                       # Number of ops (including micro ops) committed
system.cpu.dtb.rdAccesses                           0                       # TLB accesses on read requests
system.cpu.dtb.rdMisses                             0                       # TLB misses on read requests
system.cpu.dtb.wrAccesses                           0                       # TLB accesses on write requests
system.cpu.dtb.wrMisses                             0                       # TLB misses on write requests
system.cpu.idle_fraction                            0                       # Percentage of idle cycles
system.cpu.itb.rdAccesses                           0                       # TLB accesses on read requests
system.cpu.itb.rdMisses                             0                       # TLB misses on read requests
system.cpu.itb.wrAccesses                           0                       # TLB accesses on write requests
system.cpu.itb.wrMisses                             0                       # TLB misses on write requests
system.cpu.not_idle_fraction                        1                       # Percentage of non-idle cycles
system.cpu.numCycles                                0                       # number of cpu cycles simulated
system.cpu.numWorkItemsCompleted                    0                       # number of work items this cpu completed
system.cpu.numWorkItemsStarted                      0                       # number of work items this cpu started
system.cpu.num_busy_cycles                          0                       # Number of busy cycles
system.cpu.num_conditional_control_insts            0                       # number of instructions that are conditional controls
system.cpu.num_fp_alu_accesses                      0                       # Number of float alu accesses
system.cpu.num_fp_insts                             0                       # number of float instructions
system.cpu.num_fp_register_reads                    0                       # number of times the floating registers were read
system.cpu.num_fp_register_writes                   0                       # number of times the floating registers were written
system.cpu.num_func_calls                           0                       # number of times a function call or return occured
system.cpu.num_idle_cycles                          0                       # Number of idle cycles
system.cpu.num_int_alu_accesses                     0                       # Number of integer alu accesses
system.cpu.num_int_insts                            0                       # number of integer instructions
system.cpu.num_int_register_reads                   0                       # number of times the integer registers were read
system.cpu.num_int_register_writes                  0                       # number of times the integer registers were written
system.cpu.num_load_insts                           0                       # Number of load instructions
system.cpu.num_mem_refs                             0                       # number of memory refs
system.cpu.num_store_insts                          0                       # Number of store instructions
system.cpu.num_vec_alu_accesses                     0                       # Number of vector alu accesses
system.cpu.num_vec_insts                            0                       # number of vector instructions
system.cpu.num_vec_register_reads                   0                       # number of times the vector registers were read
system.cpu.num_vec_register_writes                  0                       # number of times the vector registers were written
system.cpu.op_class::No_OpClass                     0                       # Class of executed instruction
system.cpu.op_class::IntAlu                         0                       # Class of executed instruction
system.cpu.op_class::IntMult                        0                       # Class of executed instruction
system.cpu.op_class::IntDiv                         0                       # Class of executed instruction
system.cpu.op_class::FloatAdd                       0                       # Class of executed instruction
system.cpu.op_class::FloatCmp                       0                       # Class of executed instruction
system.cpu.op_class::FloatCvt                       0                       # Class of executed instruction
system.cpu.op_class::FloatMult                      0                       # Class of executed instruction
system.cpu.op_class::FloatMultAcc                   0                       # Class of executed instruction
system.cpu.op_class::FloatDiv                       0                       # Class of executed instruction
system.cpu.op_class::FloatMisc                      0                       # Class of executed instruction
system.cpu.op_class::FloatSqrt                      0                       # Class of executed instruction
system.cpu.op_class::SimdAdd                        0                       # Class of executed instruction
system.cpu.op_class::SimdAddAcc                     0                       # Class of executed instruction
system.cpu.op_class::SimdAlu                        0                       # Class of executed instruction
system.cpu.op_class::SimdCmp                        0                       # Class of executed instruction
system.cpu.op_class::SimdCvt                        0                       # Class of executed instruction
system.cpu.op_class::SimdMisc                       0                       # Class of executed instruction
system.cpu.op_class::SimdMult                       0                       # Class of executed instruction
system.cpu.op_class::SimdMultAcc                    0                       # Class of executed instruction
system.cpu.op_class::SimdShift                      0                       # Class of executed instruction
system.cpu.op_class::SimdShiftAcc                   0                       # Class of executed instruction
system.cpu.op_class::SimdDiv                        0                       # Class of executed instruction
system.cpu.op_class::SimdSqrt                       0                       # Class of executed instruction
system.cpu.op_class::SimdFloatAdd                   0                       # Class of executed instruction
system.cpu.op_class::SimdFloatAlu                   0                       # Class of executed instruction
system.cpu.op_class::SimdFloatCmp                   0                       # Class of executed instruction
system.cpu.op_class::SimdFloatCvt                   0                       # Class of executed instruction
system.cpu.op_class::SimdFloatDiv                   0                       # Class of executed instruction
system.cpu.op_class::SimdFloatMisc                  0                       # Class of executed instruction
system.cpu.op_class::SimdFloatMult                  0                       # Class of executed instruction
system.cpu.op_class::SimdFloatMultAcc               0                       # Class of executed instruction
system.cpu.op_class::SimdFloatSqrt                  0                       # Class of executed instruction
system.cpu.op_class::SimdReduceAdd                  0                       # Class of executed instruction
system.cpu.op_class::SimdReduceAlu                  0                       # Class of executed instruction
system.cpu.op_class::SimdReduceCmp                  0                       # Class of executed instruction
system.cpu.op_class::SimdFloatReduceAdd             0                       # Class of executed instruction
system.cpu.op_class::SimdFloatReduceCmp             0                       # Class of executed instruction
system.cpu.op_class::SimdAes                        0                       # Class of executed instruction
system.cpu.op_class::SimdAesMix                     0                       # Class of executed instruction
system.cpu.op_class::SimdSha1Hash                   0                       # Class of executed instruction
system.cpu.op_class::SimdSha1Hash2                  0                       # Class of executed instruction
system.cpu.op_class::SimdSha256Hash                 0                       # Class of executed instruction
system.cpu.op_class::SimdSha256Hash2                0                       # Class of executed instruction
system.cpu.op_class::SimdShaSigma2                  0                       # Class of executed instruction
system.cpu.op_class::SimdShaSigma3                  0                       # Class of executed instruction
system.cpu.op_class::SimdPredAlu                    0                       # Class of executed instruction
system.cpu.op_class::MemRead                        0                       # Class of executed instruction
system.cpu.op_class::MemWrite                       0                       # Class of executed instruction
system.cpu.op_class::FloatMemRead                   0                       # Class of executed instruction
system.cpu.op_class::FloatMemWrite                  0                       # Class of executed instruction
system.cpu.op_class::IprAccess                      0                       # Class of executed instruction
system.cpu.op_class::InstPrefetch                   0                       # Class of executed instruction
system.cpu.op_class::total                          0                       # Class of executed instruction
system.cpu.workload.numSyscalls                    78                       # Number of system calls
system.membus.snoop_filter.hit_multi_requests            0                       # Number of requests hitting in the snoop filter with multiple (>1) holders of the requested data.
system.membus.snoop_filter.hit_multi_snoops            0                       # Number of snoops hitting in the snoop filter with multiple (>1) holders of the requested data.
system.membus.snoop_filter.hit_single_requests     10185466                       # Number of requests hitting in the snoop filter with a single holder of the requested data.
system.membus.snoop_filter.hit_single_snoops            0                       # Number of snoops hitting in the snoop filter with a single holder of the requested data.
system.membus.snoop_filter.tot_requests      20349593                       # Total number of requests made to the snoop filter.
system.membus.snoop_filter.tot_snoops               0                       # Total number of snoops made to the snoop filter.
system.switch_cpus.branchPred.BTBCorrect            0                       # Number of correct BTB predictions (this stat may not work properly.
system.switch_cpus.branchPred.BTBHitPct      0.000000                       # BTB Hit Percentage
system.switch_cpus.branchPred.BTBHits               0                       # Number of BTB hits
system.switch_cpus.branchPred.BTBLookups    165157286                       # Number of BTB lookups
system.switch_cpus.branchPred.RASInCorrect       175773                       # Number of incorrect RAS predictions.
system.switch_cpus.branchPred.condIncorrect     10657621                       # Number of conditional branches incorrect
system.switch_cpus.branchPred.condPredicted    149617570                       # Number of conditional branches predicted
system.switch_cpus.branchPred.indirectHits     70313398                       # Number of indirect target hits.
system.switch_cpus.branchPred.indirectLookups    165157286                       # Number of indirect predictor lookups.
system.switch_cpus.branchPred.indirectMisses     94843888                       # Number of indirect misses.
system.switch_cpus.branchPred.lookups       191738929                       # Number of BP lookups
system.switch_cpus.branchPred.usedRAS        19875450                       # Number of times the RAS was used to get a target.
system.switch_cpus.branchPredindirectMispredicted      8639385                       # Number of mispredicted indirect branches.
system.switch_cpus.cc_regfile_reads         684697945                       # number of cc regfile reads
system.switch_cpus.cc_regfile_writes        424417770                       # number of cc regfile writes
system.switch_cpus.commit.amos                      0                       # Number of atomic instructions committed
system.switch_cpus.commit.branchMispredicts     10919516                       # The number of times a branch was mispredicted
system.switch_cpus.commit.branches          130886021                       # Number of branches committed
system.switch_cpus.commit.bw_lim_events      70739801                       # number cycles where commit BW limit reached
system.switch_cpus.commit.commitNonSpecStalls         9011                       # The number of times commit has been forced to stall to communicate backwards
system.switch_cpus.commit.commitSquashedInsts    319645322                       # The number of squashed insts skipped by commit
system.switch_cpus.commit.committedInsts    500000001                       # Number of instructions committed
system.switch_cpus.commit.committedOps      996981525                       # Number of ops (including micro ops) committed
system.switch_cpus.commit.committed_per_cycle::samples   1142132730                       # Number of insts commited each cycle
system.switch_cpus.commit.committed_per_cycle::mean     0.872912                       # Number of insts commited each cycle
system.switch_cpus.commit.committed_per_cycle::stdev     2.194373                       # Number of insts commited each cycle
system.switch_cpus.commit.committed_per_cycle::underflows            0      0.00%      0.00% # Number of insts commited each cycle
system.switch_cpus.commit.committed_per_cycle::0    934759402     81.84%     81.84% # Number of insts commited each cycle
system.switch_cpus.commit.committed_per_cycle::1     37168900      3.25%     85.10% # Number of insts commited each cycle
system.switch_cpus.commit.committed_per_cycle::2     15523681      1.36%     86.46% # Number of insts commited each cycle
system.switch_cpus.commit.committed_per_cycle::3     34764374      3.04%     89.50% # Number of insts commited each cycle
system.switch_cpus.commit.committed_per_cycle::4     18845396      1.65%     91.15% # Number of insts commited each cycle
system.switch_cpus.commit.committed_per_cycle::5     10805755      0.95%     92.10% # Number of insts commited each cycle
system.switch_cpus.commit.committed_per_cycle::6      7534580      0.66%     92.76% # Number of insts commited each cycle
system.switch_cpus.commit.committed_per_cycle::7     11990841      1.05%     93.81% # Number of insts commited each cycle
system.switch_cpus.commit.committed_per_cycle::8     70739801      6.19%    100.00% # Number of insts commited each cycle
system.switch_cpus.commit.committed_per_cycle::overflows            0      0.00%    100.00% # Number of insts commited each cycle
system.switch_cpus.commit.committed_per_cycle::min_value            0                       # Number of insts commited each cycle
system.switch_cpus.commit.committed_per_cycle::max_value            8                       # Number of insts commited each cycle
system.switch_cpus.commit.committed_per_cycle::total   1142132730                       # Number of insts commited each cycle
system.switch_cpus.commit.fp_insts            1876816                       # Number of committed floating point instructions.
system.switch_cpus.commit.function_calls     13094114                       # Number of function calls committed.
system.switch_cpus.commit.int_insts         992433043                       # Number of committed integer instructions.
system.switch_cpus.commit.loads             146304457                       # Number of loads committed
system.switch_cpus.commit.membars                 560                       # Number of memory barriers committed
system.switch_cpus.commit.op_class_0::No_OpClass      4430607      0.44%      0.44% # Class of committed instruction
system.switch_cpus.commit.op_class_0::IntAlu    800857666     80.33%     80.77% # Class of committed instruction
system.switch_cpus.commit.op_class_0::IntMult       641434      0.06%     80.84% # Class of committed instruction
system.switch_cpus.commit.op_class_0::IntDiv      1361277      0.14%     80.97% # Class of committed instruction
system.switch_cpus.commit.op_class_0::FloatAdd         5444      0.00%     80.97% # Class of committed instruction
system.switch_cpus.commit.op_class_0::FloatCmp            0      0.00%     80.97% # Class of committed instruction
system.switch_cpus.commit.op_class_0::FloatCvt            0      0.00%     80.97% # Class of committed instruction
system.switch_cpus.commit.op_class_0::FloatMult            0      0.00%     80.97% # Class of committed instruction
system.switch_cpus.commit.op_class_0::FloatMultAcc            0      0.00%     80.97% # Class of committed instruction
system.switch_cpus.commit.op_class_0::FloatDiv            0      0.00%     80.97% # Class of committed instruction
system.switch_cpus.commit.op_class_0::FloatMisc            0      0.00%     80.97% # Class of committed instruction
system.switch_cpus.commit.op_class_0::FloatSqrt            0      0.00%     80.97% # Class of committed instruction
system.switch_cpus.commit.op_class_0::SimdAdd            0      0.00%     80.97% # Class of committed instruction
system.switch_cpus.commit.op_class_0::SimdAddAcc            0      0.00%     80.97% # Class of committed instruction
system.switch_cpus.commit.op_class_0::SimdAlu           46      0.00%     80.97% # Class of committed instruction
system.switch_cpus.commit.op_class_0::SimdCmp            0      0.00%     80.97% # Class of committed instruction
system.switch_cpus.commit.op_class_0::SimdCvt            0      0.00%     80.97% # Class of committed instruction
system.switch_cpus.commit.op_class_0::SimdMisc        38154      0.00%     80.98% # Class of committed instruction
system.switch_cpus.commit.op_class_0::SimdMult            0      0.00%     80.98% # Class of committed instruction
system.switch_cpus.commit.op_class_0::SimdMultAcc            0      0.00%     80.98% # Class of committed instruction
system.switch_cpus.commit.op_class_0::SimdShift            0      0.00%     80.98% # Class of committed instruction
system.switch_cpus.commit.op_class_0::SimdShiftAcc            0      0.00%     80.98% # Class of committed instruction
system.switch_cpus.commit.op_class_0::SimdDiv            0      0.00%     80.98% # Class of committed instruction
system.switch_cpus.commit.op_class_0::SimdSqrt            0      0.00%     80.98% # Class of committed instruction
system.switch_cpus.commit.op_class_0::SimdFloatAdd            0      0.00%     80.98% # Class of committed instruction
system.switch_cpus.commit.op_class_0::SimdFloatAlu            0      0.00%     80.98% # Class of committed instruction
system.switch_cpus.commit.op_class_0::SimdFloatCmp            0      0.00%     80.98% # Class of committed instruction
system.switch_cpus.commit.op_class_0::SimdFloatCvt           46      0.00%     80.98% # Class of committed instruction
system.switch_cpus.commit.op_class_0::SimdFloatDiv            0      0.00%     80.98% # Class of committed instruction
system.switch_cpus.commit.op_class_0::SimdFloatMisc            0      0.00%     80.98% # Class of committed instruction
system.switch_cpus.commit.op_class_0::SimdFloatMult           23      0.00%     80.98% # Class of committed instruction
system.switch_cpus.commit.op_class_0::SimdFloatMultAcc            0      0.00%     80.98% # Class of committed instruction
system.switch_cpus.commit.op_class_0::SimdFloatSqrt            0      0.00%     80.98% # Class of committed instruction
system.switch_cpus.commit.op_class_0::SimdReduceAdd            0      0.00%     80.98% # Class of committed instruction
system.switch_cpus.commit.op_class_0::SimdReduceAlu            0      0.00%     80.98% # Class of committed instruction
system.switch_cpus.commit.op_class_0::SimdReduceCmp            0      0.00%     80.98% # Class of committed instruction
system.switch_cpus.commit.op_class_0::SimdFloatReduceAdd            0      0.00%     80.98% # Class of committed instruction
system.switch_cpus.commit.op_class_0::SimdFloatReduceCmp            0      0.00%     80.98% # Class of committed instruction
system.switch_cpus.commit.op_class_0::SimdAes            0      0.00%     80.98% # Class of committed instruction
system.switch_cpus.commit.op_class_0::SimdAesMix            0      0.00%     80.98% # Class of committed instruction
system.switch_cpus.commit.op_class_0::SimdSha1Hash            0      0.00%     80.98% # Class of committed instruction
system.switch_cpus.commit.op_class_0::SimdSha1Hash2            0      0.00%     80.98% # Class of committed instruction
system.switch_cpus.commit.op_class_0::SimdSha256Hash            0      0.00%     80.98% # Class of committed instruction
system.switch_cpus.commit.op_class_0::SimdSha256Hash2            0      0.00%     80.98% # Class of committed instruction
system.switch_cpus.commit.op_class_0::SimdShaSigma2            0      0.00%     80.98% # Class of committed instruction
system.switch_cpus.commit.op_class_0::SimdShaSigma3            0      0.00%     80.98% # Class of committed instruction
system.switch_cpus.commit.op_class_0::SimdPredAlu            0      0.00%     80.98% # Class of committed instruction
system.switch_cpus.commit.op_class_0::MemRead    145465116     14.59%     95.57% # Class of committed instruction
system.switch_cpus.commit.op_class_0::MemWrite     42354052      4.25%     99.82% # Class of committed instruction
system.switch_cpus.commit.op_class_0::FloatMemRead       839341      0.08%     99.90% # Class of committed instruction
system.switch_cpus.commit.op_class_0::FloatMemWrite       988318      0.10%    100.00% # Class of committed instruction
system.switch_cpus.commit.op_class_0::IprAccess            0      0.00%    100.00% # Class of committed instruction
system.switch_cpus.commit.op_class_0::InstPrefetch            0      0.00%    100.00% # Class of committed instruction
system.switch_cpus.commit.op_class_0::total    996981524                       # Class of committed instruction
system.switch_cpus.commit.refs              189646827                       # Number of memory references committed
system.switch_cpus.commit.swp_count                 0                       # Number of s/w prefetches committed
system.switch_cpus.commit.vec_insts                 0                       # Number of committed Vector instructions.
system.switch_cpus.committedInsts           500000000                       # Number of Instructions Simulated
system.switch_cpus.committedOps             996981524                       # Number of Ops (including micro ops) Simulated
system.switch_cpus.cpi                       2.622769                       # CPI: Cycles Per Instruction
system.switch_cpus.cpi_total                 2.622769                       # CPI: Total CPI of All Threads
system.switch_cpus.decode.BlockedCycles     783226706                       # Number of cycles decode is blocked
system.switch_cpus.decode.DecodedInsts     1437309140                       # Number of instructions handled by decode
system.switch_cpus.decode.IdleCycles        183632680                       # Number of cycles decode is idle
system.switch_cpus.decode.RunCycles         183210728                       # Number of cycles decode is running
system.switch_cpus.decode.SquashCycles       11194731                       # Number of cycles decode is squashing
system.switch_cpus.decode.UnblockCycles      31552273                       # Number of cycles decode is unblocking
system.switch_cpus.dtb.rdAccesses           182545883                       # TLB accesses on read requests
system.switch_cpus.dtb.rdMisses               3431555                       # TLB misses on read requests
system.switch_cpus.dtb.wrAccesses            57774557                       # TLB accesses on write requests
system.switch_cpus.dtb.wrMisses                206398                       # TLB misses on write requests
system.switch_cpus.fetch.Branches           191738929                       # Number of branches that fetch encountered
system.switch_cpus.fetch.CacheLines         104282772                       # Number of cache lines fetched
system.switch_cpus.fetch.Cycles             974379811                       # Number of cycles fetch has run and was not squashing or blocked
system.switch_cpus.fetch.IcacheSquashes       5167177                       # Number of outstanding Icache misses that were squashed
system.switch_cpus.fetch.IcacheWaitRetryStallCycles       113643                       # Number of stall cycles due to full MSHR
system.switch_cpus.fetch.Insts              755517414                       # Number of instructions fetch has processed
system.switch_cpus.fetch.MiscStallCycles       312692                       # Number of cycles fetch has spent waiting on interrupts, or bad addresses, or out of MSHRs
system.switch_cpus.fetch.PendingQuiesceStallCycles        13999                       # Number of stall cycles due to pending quiesce instructions
system.switch_cpus.fetch.PendingTrapStallCycles      1739472                       # Number of stall cycles due to pending traps
system.switch_cpus.fetch.SquashCycles        22389462                       # Number of cycles fetch has spent squashing
system.switch_cpus.fetch.TlbCycles                 92                       # Number of cycles fetch has spent waiting for tlb
system.switch_cpus.fetch.branchRate          0.146211                       # Number of branch fetches per cycle
system.switch_cpus.fetch.icacheStallCycles    205062684                       # Number of cycles fetch is stalled on an Icache miss
system.switch_cpus.fetch.predictedBranches     90188848                       # Number of branches that fetch has predicted taken
system.switch_cpus.fetch.rate                0.576122                       # Number of inst fetches per cycle
system.switch_cpus.fetch.rateDist::samples   1192817124                       # Number of instructions fetched each cycle (Total)
system.switch_cpus.fetch.rateDist::mean      1.266797                       # Number of instructions fetched each cycle (Total)
system.switch_cpus.fetch.rateDist::stdev     2.709901                       # Number of instructions fetched each cycle (Total)
system.switch_cpus.fetch.rateDist::underflows            0      0.00%      0.00% # Number of instructions fetched each cycle (Total)
system.switch_cpus.fetch.rateDist::0        946153755     79.32%     79.32% # Number of instructions fetched each cycle (Total)
system.switch_cpus.fetch.rateDist::1         12445676      1.04%     80.36% # Number of instructions fetched each cycle (Total)
system.switch_cpus.fetch.rateDist::2         22752063      1.91%     82.27% # Number of instructions fetched each cycle (Total)
system.switch_cpus.fetch.rateDist::3         15204674      1.27%     83.55% # Number of instructions fetched each cycle (Total)
system.switch_cpus.fetch.rateDist::4         13762642      1.15%     84.70% # Number of instructions fetched each cycle (Total)
system.switch_cpus.fetch.rateDist::5         18298489      1.53%     86.23% # Number of instructions fetched each cycle (Total)
system.switch_cpus.fetch.rateDist::6         18351164      1.54%     87.77% # Number of instructions fetched each cycle (Total)
system.switch_cpus.fetch.rateDist::7         15945722      1.34%     89.11% # Number of instructions fetched each cycle (Total)
system.switch_cpus.fetch.rateDist::8        129902939     10.89%    100.00% # Number of instructions fetched each cycle (Total)
system.switch_cpus.fetch.rateDist::overflows            0      0.00%    100.00% # Number of instructions fetched each cycle (Total)
system.switch_cpus.fetch.rateDist::min_value            0                       # Number of instructions fetched each cycle (Total)
system.switch_cpus.fetch.rateDist::max_value            8                       # Number of instructions fetched each cycle (Total)
system.switch_cpus.fetch.rateDist::total   1192817124                       # Number of instructions fetched each cycle (Total)
system.switch_cpus.fp_regfile_reads           5861669                       # number of floating regfile reads
system.switch_cpus.fp_regfile_writes          5406283                       # number of floating regfile writes
system.switch_cpus.idleCycles               118567570                       # Total number of cycles that the CPU has spent unscheduled due to idling
system.switch_cpus.iew.branchMispredicts     13877213                       # Number of branch mispredicts detected at execute
system.switch_cpus.iew.exec_branches        147692188                       # Number of branches executed
system.switch_cpus.iew.exec_nop                     0                       # number of nop insts executed
system.switch_cpus.iew.exec_rate             0.923066                       # Inst execution rate
system.switch_cpus.iew.exec_refs            240354631                       # number of memory reference insts executed
system.switch_cpus.iew.exec_stores           57738567                       # Number of stores executed
system.switch_cpus.iew.exec_swp                     0                       # number of swp insts executed
system.switch_cpus.iew.iewBlockCycles       527166831                       # Number of cycles IEW is blocking
system.switch_cpus.iew.iewDispLoadInsts     203024356                       # Number of dispatched load instructions
system.switch_cpus.iew.iewDispNonSpecInsts        55756                       # Number of dispatched non-speculative instructions
system.switch_cpus.iew.iewDispSquashedInsts       847015                       # Number of squashed instructions skipped by dispatch
system.switch_cpus.iew.iewDispStoreInsts     67227156                       # Number of dispatched store instructions
system.switch_cpus.iew.iewDispatchedInsts   1322203812                       # Number of instructions dispatched to IQ
system.switch_cpus.iew.iewExecLoadInsts     182616064                       # Number of load instructions executed
system.switch_cpus.iew.iewExecSquashedInsts     21570651                       # Number of squashed instructions skipped in execute
system.switch_cpus.iew.iewExecutedInsts    1210494902                       # Number of executed instructions
system.switch_cpus.iew.iewIQFullEvents        3949897                       # Number of times the IQ has become full, causing a stall
system.switch_cpus.iew.iewIdleCycles                0                       # Number of cycles IEW is idle
system.switch_cpus.iew.iewLSQFullEvents       8800278                       # Number of times the LSQ has become full, causing a stall
system.switch_cpus.iew.iewSquashCycles       11194731                       # Number of cycles IEW is squashing
system.switch_cpus.iew.iewUnblockCycles      14585103                       # Number of cycles IEW is unblocking
system.switch_cpus.iew.lsq.thread0.blockedLoads            0                       # Number of blocked loads due to partial load-store forwarding
system.switch_cpus.iew.lsq.thread0.cacheBlocked       117201                       # Number of times an access to memory failed due to the cache being blocked
system.switch_cpus.iew.lsq.thread0.forwLoads     17954925                       # Number of loads that had data forwarded from stores
system.switch_cpus.iew.lsq.thread0.ignoredResponses        60846                       # Number of memory responses ignored because the instruction is squashed
system.switch_cpus.iew.lsq.thread0.invAddrLoads            0                       # Number of loads ignored due to an invalid address
system.switch_cpus.iew.lsq.thread0.invAddrSwpfs            0                       # Number of software prefetches ignored due to an invalid address
system.switch_cpus.iew.lsq.thread0.memOrderViolation        52926                       # Number of memory ordering violations
system.switch_cpus.iew.lsq.thread0.rescheduledLoads        35485                       # Number of loads that were rescheduled
system.switch_cpus.iew.lsq.thread0.squashedLoads     56719881                       # Number of loads squashed
system.switch_cpus.iew.lsq.thread0.squashedStores     23884785                       # Number of stores squashed
system.switch_cpus.iew.memOrderViolationEvents        52926                       # Number of memory order violations
system.switch_cpus.iew.predictedNotTakenIncorrect     11506165                       # Number of branches that were predicted not taken incorrectly
system.switch_cpus.iew.predictedTakenIncorrect      2371048                       # Number of branches that were predicted taken incorrectly
system.switch_cpus.iew.wb_consumers        1405981090                       # num instructions consuming a value
system.switch_cpus.iew.wb_count            1195473552                       # cumulative count of insts written-back
system.switch_cpus.iew.wb_fanout             0.616079                       # average fanout of values written-back
system.switch_cpus.iew.wb_producers         866195785                       # num instructions producing a value
system.switch_cpus.iew.wb_rate               0.911612                       # insts written-back per cycle
system.switch_cpus.iew.wb_sent             1202836685                       # cumulative count of insts sent to commit
system.switch_cpus.int_regfile_reads       1774601091                       # number of integer regfile reads
system.switch_cpus.int_regfile_writes       983936399                       # number of integer regfile writes
system.switch_cpus.ipc                       0.381276                       # IPC: Instructions Per Cycle
system.switch_cpus.ipc_total                 0.381276                       # IPC: Total IPC of All Threads
system.switch_cpus.iq.FU_type_0::No_OpClass     10392276      0.84%      0.84% # Type of FU issued
system.switch_cpus.iq.FU_type_0::IntAlu     971916087     78.89%     79.73% # Type of FU issued
system.switch_cpus.iq.FU_type_0::IntMult       687205      0.06%     79.78% # Type of FU issued
system.switch_cpus.iq.FU_type_0::IntDiv       1619851      0.13%     79.92% # Type of FU issued
system.switch_cpus.iq.FU_type_0::FloatAdd        20629      0.00%     79.92% # Type of FU issued
system.switch_cpus.iq.FU_type_0::FloatCmp            1      0.00%     79.92% # Type of FU issued
system.switch_cpus.iq.FU_type_0::FloatCvt            4      0.00%     79.92% # Type of FU issued
system.switch_cpus.iq.FU_type_0::FloatMult            4      0.00%     79.92% # Type of FU issued
system.switch_cpus.iq.FU_type_0::FloatMultAcc            0      0.00%     79.92% # Type of FU issued
system.switch_cpus.iq.FU_type_0::FloatDiv           18      0.00%     79.92% # Type of FU issued
system.switch_cpus.iq.FU_type_0::FloatMisc            0      0.00%     79.92% # Type of FU issued
system.switch_cpus.iq.FU_type_0::FloatSqrt            0      0.00%     79.92% # Type of FU issued
system.switch_cpus.iq.FU_type_0::SimdAdd         1567      0.00%     79.92% # Type of FU issued
system.switch_cpus.iq.FU_type_0::SimdAddAcc            0      0.00%     79.92% # Type of FU issued
system.switch_cpus.iq.FU_type_0::SimdAlu       157611      0.01%     79.93% # Type of FU issued
system.switch_cpus.iq.FU_type_0::SimdCmp            0      0.00%     79.93% # Type of FU issued
system.switch_cpus.iq.FU_type_0::SimdCvt         4015      0.00%     79.93% # Type of FU issued
system.switch_cpus.iq.FU_type_0::SimdMisc        81027      0.01%     79.94% # Type of FU issued
system.switch_cpus.iq.FU_type_0::SimdMult            0      0.00%     79.94% # Type of FU issued
system.switch_cpus.iq.FU_type_0::SimdMultAcc            0      0.00%     79.94% # Type of FU issued
system.switch_cpus.iq.FU_type_0::SimdShift            0      0.00%     79.94% # Type of FU issued
system.switch_cpus.iq.FU_type_0::SimdShiftAcc            0      0.00%     79.94% # Type of FU issued
system.switch_cpus.iq.FU_type_0::SimdDiv            0      0.00%     79.94% # Type of FU issued
system.switch_cpus.iq.FU_type_0::SimdSqrt            0      0.00%     79.94% # Type of FU issued
system.switch_cpus.iq.FU_type_0::SimdFloatAdd            0      0.00%     79.94% # Type of FU issued
system.switch_cpus.iq.FU_type_0::SimdFloatAlu            0      0.00%     79.94% # Type of FU issued
system.switch_cpus.iq.FU_type_0::SimdFloatCmp            0      0.00%     79.94% # Type of FU issued
system.switch_cpus.iq.FU_type_0::SimdFloatCvt        31411      0.00%     79.94% # Type of FU issued
system.switch_cpus.iq.FU_type_0::SimdFloatDiv            0      0.00%     79.94% # Type of FU issued
system.switch_cpus.iq.FU_type_0::SimdFloatMisc            0      0.00%     79.94% # Type of FU issued
system.switch_cpus.iq.FU_type_0::SimdFloatMult         8846      0.00%     79.94% # Type of FU issued
system.switch_cpus.iq.FU_type_0::SimdFloatMultAcc            0      0.00%     79.94% # Type of FU issued
system.switch_cpus.iq.FU_type_0::SimdFloatSqrt            0      0.00%     79.94% # Type of FU issued
system.switch_cpus.iq.FU_type_0::SimdReduceAdd            0      0.00%     79.94% # Type of FU issued
system.switch_cpus.iq.FU_type_0::SimdReduceAlu            0      0.00%     79.94% # Type of FU issued
system.switch_cpus.iq.FU_type_0::SimdReduceCmp            0      0.00%     79.94% # Type of FU issued
system.switch_cpus.iq.FU_type_0::SimdFloatReduceAdd            0      0.00%     79.94% # Type of FU issued
system.switch_cpus.iq.FU_type_0::SimdFloatReduceCmp            0      0.00%     79.94% # Type of FU issued
system.switch_cpus.iq.FU_type_0::SimdAes            0      0.00%     79.94% # Type of FU issued
system.switch_cpus.iq.FU_type_0::SimdAesMix            0      0.00%     79.94% # Type of FU issued
system.switch_cpus.iq.FU_type_0::SimdSha1Hash            0      0.00%     79.94% # Type of FU issued
system.switch_cpus.iq.FU_type_0::SimdSha1Hash2            0      0.00%     79.94% # Type of FU issued
system.switch_cpus.iq.FU_type_0::SimdSha256Hash            0      0.00%     79.94% # Type of FU issued
system.switch_cpus.iq.FU_type_0::SimdSha256Hash2            0      0.00%     79.94% # Type of FU issued
system.switch_cpus.iq.FU_type_0::SimdShaSigma2            0      0.00%     79.94% # Type of FU issued
system.switch_cpus.iq.FU_type_0::SimdShaSigma3            0      0.00%     79.94% # Type of FU issued
system.switch_cpus.iq.FU_type_0::SimdPredAlu            0      0.00%     79.94% # Type of FU issued
system.switch_cpus.iq.FU_type_0::MemRead    181815197     14.76%     94.70% # Type of FU issued
system.switch_cpus.iq.FU_type_0::MemWrite     54153401      4.40%     99.09% # Type of FU issued
system.switch_cpus.iq.FU_type_0::FloatMemRead      5749197      0.47%     99.56% # Type of FU issued
system.switch_cpus.iq.FU_type_0::FloatMemWrite      5427208      0.44%    100.00% # Type of FU issued
system.switch_cpus.iq.FU_type_0::IprAccess            0      0.00%    100.00% # Type of FU issued
system.switch_cpus.iq.FU_type_0::InstPrefetch            0      0.00%    100.00% # Type of FU issued
system.switch_cpus.iq.FU_type_0::total     1232065555                       # Type of FU issued
system.switch_cpus.iq.fp_alu_accesses        13381320                       # Number of floating point alu accesses
system.switch_cpus.iq.fp_inst_queue_reads     24948659                       # Number of floating instruction queue reads
system.switch_cpus.iq.fp_inst_queue_wakeup_accesses     10547947                       # Number of floating instruction queue wakeup accesses
system.switch_cpus.iq.fp_inst_queue_writes     24431462                       # Number of floating instruction queue writes
system.switch_cpus.iq.fu_busy_cnt            31269598                       # FU busy when requested
system.switch_cpus.iq.fu_busy_rate           0.025380                       # FU busy rate (busy events/executed inst)
system.switch_cpus.iq.fu_full::No_OpClass            0      0.00%      0.00% # attempts to use FU when none available
system.switch_cpus.iq.fu_full::IntAlu        27298376     87.30%     87.30% # attempts to use FU when none available
system.switch_cpus.iq.fu_full::IntMult              0      0.00%     87.30% # attempts to use FU when none available
system.switch_cpus.iq.fu_full::IntDiv               0      0.00%     87.30% # attempts to use FU when none available
system.switch_cpus.iq.fu_full::FloatAdd             0      0.00%     87.30% # attempts to use FU when none available
system.switch_cpus.iq.fu_full::FloatCmp             0      0.00%     87.30% # attempts to use FU when none available
system.switch_cpus.iq.fu_full::FloatCvt             0      0.00%     87.30% # attempts to use FU when none available
system.switch_cpus.iq.fu_full::FloatMult            0      0.00%     87.30% # attempts to use FU when none available
system.switch_cpus.iq.fu_full::FloatMultAcc            0      0.00%     87.30% # attempts to use FU when none available
system.switch_cpus.iq.fu_full::FloatDiv             0      0.00%     87.30% # attempts to use FU when none available
system.switch_cpus.iq.fu_full::FloatMisc            0      0.00%     87.30% # attempts to use FU when none available
system.switch_cpus.iq.fu_full::FloatSqrt            0      0.00%     87.30% # attempts to use FU when none available
system.switch_cpus.iq.fu_full::SimdAdd              0      0.00%     87.30% # attempts to use FU when none available
system.switch_cpus.iq.fu_full::SimdAddAcc            0      0.00%     87.30% # attempts to use FU when none available
system.switch_cpus.iq.fu_full::SimdAlu              0      0.00%     87.30% # attempts to use FU when none available
system.switch_cpus.iq.fu_full::SimdCmp              0      0.00%     87.30% # attempts to use FU when none available
system.switch_cpus.iq.fu_full::SimdCvt              0      0.00%     87.30% # attempts to use FU when none available
system.switch_cpus.iq.fu_full::SimdMisc             0      0.00%     87.30% # attempts to use FU when none available
system.switch_cpus.iq.fu_full::SimdMult             0      0.00%     87.30% # attempts to use FU when none available
system.switch_cpus.iq.fu_full::SimdMultAcc            0      0.00%     87.30% # attempts to use FU when none available
system.switch_cpus.iq.fu_full::SimdShift            0      0.00%     87.30% # attempts to use FU when none available
system.switch_cpus.iq.fu_full::SimdShiftAcc            0      0.00%     87.30% # attempts to use FU when none available
system.switch_cpus.iq.fu_full::SimdDiv              0      0.00%     87.30% # attempts to use FU when none available
system.switch_cpus.iq.fu_full::SimdSqrt             0      0.00%     87.30% # attempts to use FU when none available
system.switch_cpus.iq.fu_full::SimdFloatAdd            0      0.00%     87.30% # attempts to use FU when none available
system.switch_cpus.iq.fu_full::SimdFloatAlu            0      0.00%     87.30% # attempts to use FU when none available
system.switch_cpus.iq.fu_full::SimdFloatCmp            0      0.00%     87.30% # attempts to use FU when none available
system.switch_cpus.iq.fu_full::SimdFloatCvt            0      0.00%     87.30% # attempts to use FU when none available
system.switch_cpus.iq.fu_full::SimdFloatDiv            0      0.00%     87.30% # attempts to use FU when none available
system.switch_cpus.iq.fu_full::SimdFloatMisc            0      0.00%     87.30% # attempts to use FU when none available
system.switch_cpus.iq.fu_full::SimdFloatMult            0      0.00%     87.30% # attempts to use FU when none available
system.switch_cpus.iq.fu_full::SimdFloatMultAcc            0      0.00%     87.30% # attempts to use FU when none available
system.switch_cpus.iq.fu_full::SimdFloatSqrt            0      0.00%     87.30% # attempts to use FU when none available
system.switch_cpus.iq.fu_full::SimdReduceAdd            0      0.00%     87.30% # attempts to use FU when none available
system.switch_cpus.iq.fu_full::SimdReduceAlu            0      0.00%     87.30% # attempts to use FU when none available
system.switch_cpus.iq.fu_full::SimdReduceCmp            0      0.00%     87.30% # attempts to use FU when none available
system.switch_cpus.iq.fu_full::SimdFloatReduceAdd            0      0.00%     87.30% # attempts to use FU when none available
system.switch_cpus.iq.fu_full::SimdFloatReduceCmp            0      0.00%     87.30% # attempts to use FU when none available
system.switch_cpus.iq.fu_full::SimdAes              0      0.00%     87.30% # attempts to use FU when none available
system.switch_cpus.iq.fu_full::SimdAesMix            0      0.00%     87.30% # attempts to use FU when none available
system.switch_cpus.iq.fu_full::SimdSha1Hash            0      0.00%     87.30% # attempts to use FU when none available
system.switch_cpus.iq.fu_full::SimdSha1Hash2            0      0.00%     87.30% # attempts to use FU when none available
system.switch_cpus.iq.fu_full::SimdSha256Hash            0      0.00%     87.30% # attempts to use FU when none available
system.switch_cpus.iq.fu_full::SimdSha256Hash2            0      0.00%     87.30% # attempts to use FU when none available
system.switch_cpus.iq.fu_full::SimdShaSigma2            0      0.00%     87.30% # attempts to use FU when none available
system.switch_cpus.iq.fu_full::SimdShaSigma3            0      0.00%     87.30% # attempts to use FU when none available
system.switch_cpus.iq.fu_full::SimdPredAlu            0      0.00%     87.30% # attempts to use FU when none available
system.switch_cpus.iq.fu_full::MemRead         984610      3.15%     90.45% # attempts to use FU when none available
system.switch_cpus.iq.fu_full::MemWrite       1092886      3.50%     93.94% # attempts to use FU when none available
system.switch_cpus.iq.fu_full::FloatMemRead      1586599      5.07%     99.02% # attempts to use FU when none available
system.switch_cpus.iq.fu_full::FloatMemWrite       307127      0.98%    100.00% # attempts to use FU when none available
system.switch_cpus.iq.fu_full::IprAccess            0      0.00%    100.00% # attempts to use FU when none available
system.switch_cpus.iq.fu_full::InstPrefetch            0      0.00%    100.00% # attempts to use FU when none available
system.switch_cpus.iq.int_alu_accesses     1239561557                       # Number of integer alu accesses
system.switch_cpus.iq.int_inst_queue_reads   3666488182                       # Number of integer instruction queue reads
system.switch_cpus.iq.int_inst_queue_wakeup_accesses   1184925605                       # Number of integer instruction queue wakeup accesses
system.switch_cpus.iq.int_inst_queue_writes   1623042686                       # Number of integer instruction queue writes
system.switch_cpus.iq.iqInstsAdded         1321958189                       # Number of instructions added to the IQ (excludes non-spec)
system.switch_cpus.iq.iqInstsIssued        1232065555                       # Number of instructions issued
system.switch_cpus.iq.iqNonSpecInstsAdded       245623                       # Number of non-speculative instructions added to the IQ
system.switch_cpus.iq.iqSquashedInstsExamined    325222141                       # Number of squashed instructions iterated over during squash; mainly for profiling
system.switch_cpus.iq.iqSquashedInstsIssued      3219011                       # Number of squashed instructions issued
system.switch_cpus.iq.iqSquashedNonSpecRemoved       236612                       # Number of squashed non-spec instructions that were removed
system.switch_cpus.iq.iqSquashedOperandsExamined    391037808                       # Number of squashed operands that are examined and possibly removed from graph
system.switch_cpus.iq.issued_per_cycle::samples   1192817124                       # Number of insts issued each cycle
system.switch_cpus.iq.issued_per_cycle::mean     1.032904                       # Number of insts issued each cycle
system.switch_cpus.iq.issued_per_cycle::stdev     1.985522                       # Number of insts issued each cycle
system.switch_cpus.iq.issued_per_cycle::underflows            0      0.00%      0.00% # Number of insts issued each cycle
system.switch_cpus.iq.issued_per_cycle::0    858314299     71.96%     71.96% # Number of insts issued each cycle
system.switch_cpus.iq.issued_per_cycle::1     53664308      4.50%     76.46% # Number of insts issued each cycle
system.switch_cpus.iq.issued_per_cycle::2     71868035      6.03%     82.48% # Number of insts issued each cycle
system.switch_cpus.iq.issued_per_cycle::3     50976523      4.27%     86.75% # Number of insts issued each cycle
system.switch_cpus.iq.issued_per_cycle::4     43740695      3.67%     90.42% # Number of insts issued each cycle
system.switch_cpus.iq.issued_per_cycle::5     32279176      2.71%     93.13% # Number of insts issued each cycle
system.switch_cpus.iq.issued_per_cycle::6     39092207      3.28%     96.40% # Number of insts issued each cycle
system.switch_cpus.iq.issued_per_cycle::7     32231342      2.70%     99.11% # Number of insts issued each cycle
system.switch_cpus.iq.issued_per_cycle::8     10650539      0.89%    100.00% # Number of insts issued each cycle
system.switch_cpus.iq.issued_per_cycle::overflows            0      0.00%    100.00% # Number of insts issued each cycle
system.switch_cpus.iq.issued_per_cycle::min_value            0                       # Number of insts issued each cycle
system.switch_cpus.iq.issued_per_cycle::max_value            8                       # Number of insts issued each cycle
system.switch_cpus.iq.issued_per_cycle::total   1192817124                       # Number of insts issued each cycle
system.switch_cpus.iq.rate                   0.939515                       # Inst issue rate
system.switch_cpus.iq.vec_alu_accesses              0                       # Number of vector alu accesses
system.switch_cpus.iq.vec_inst_queue_reads            0                       # Number of vector instruction queue reads
system.switch_cpus.iq.vec_inst_queue_wakeup_accesses            0                       # Number of vector instruction queue wakeup accesses
system.switch_cpus.iq.vec_inst_queue_writes            0                       # Number of vector instruction queue writes
system.switch_cpus.itb.rdAccesses                   0                       # TLB accesses on read requests
system.switch_cpus.itb.rdMisses                     0                       # TLB misses on read requests
system.switch_cpus.itb.wrAccesses           104577673                       # TLB accesses on write requests
system.switch_cpus.itb.wrMisses               1288833                       # TLB misses on write requests
system.switch_cpus.memDep0.conflictingLoads      7964168                       # Number of conflicting loads.
system.switch_cpus.memDep0.conflictingStores      5329734                       # Number of conflicting stores.
system.switch_cpus.memDep0.insertedLoads    203024356                       # Number of loads inserted to the mem dependence unit.
system.switch_cpus.memDep0.insertedStores     67227156                       # Number of stores inserted to the mem dependence unit.
system.switch_cpus.misc_regfile_reads       537201143                       # number of misc regfile reads
system.switch_cpus.numCycles               1311384694                       # number of cpu cycles simulated
system.switch_cpus.numWorkItemsCompleted            0                       # number of work items this cpu completed
system.switch_cpus.numWorkItemsStarted              0                       # number of work items this cpu started
system.switch_cpus.rename.BlockCycles       705384884                       # Number of cycles rename is blocking
system.switch_cpus.rename.CommittedMaps    1196710614                       # Number of HB maps that are committed
system.switch_cpus.rename.FullRegisterEvents            8                       # Number of times there has been no free registers
system.switch_cpus.rename.IQFullEvents       38782412                       # Number of times rename has blocked due to IQ full
system.switch_cpus.rename.IdleCycles        196493158                       # Number of cycles rename is idle
system.switch_cpus.rename.LQFullEvents       11616882                       # Number of times rename has blocked due to LQ full
system.switch_cpus.rename.ROBFullEvents       4996753                       # Number of times rename has blocked due to ROB full
system.switch_cpus.rename.RenameLookups    3558889032                       # Number of register rename lookups that rename has made
system.switch_cpus.rename.RenamedInsts     1398408971                       # Number of instructions processed by rename
system.switch_cpus.rename.RenamedOperands   1630527670                       # Number of destination operands rename has renamed
system.switch_cpus.rename.RunCycles         197922291                       # Number of cycles rename is running
system.switch_cpus.rename.SQFullEvents       20986057                       # Number of times rename has blocked due to SQ full
system.switch_cpus.rename.SquashCycles       11194731                       # Number of cycles rename is squashing
system.switch_cpus.rename.UnblockCycles      81488749                       # Number of cycles rename is unblocking
system.switch_cpus.rename.UndoneMaps        433816838                       # Number of HB maps that are undone due to squashing
system.switch_cpus.rename.fp_rename_lookups      8114011                       # Number of floating rename lookups
system.switch_cpus.rename.int_rename_lookups   2112349091                       # Number of integer rename lookups
system.switch_cpus.rename.serializeStallCycles       333306                       # count of cycles rename stalled for serializing inst
system.switch_cpus.rename.serializingInsts         1876                       # count of serializing insts renamed
system.switch_cpus.rename.skidInsts         137525960                       # count of insts added to the skid buffer
system.switch_cpus.rename.tempSerializingInsts         2083                       # count of temporary serializing insts renamed
system.switch_cpus.rob.rob_reads           2384967948                       # The number of ROB reads
system.switch_cpus.rob.rob_writes          2684483825                       # The number of ROB writes
system.switch_cpus.timesIdled                 2519045                       # Number of times that the entire CPU went into an idle state and unscheduled itself
system.tol2bus.snoop_filter.hit_multi_requests       396505                       # Number of requests hitting in the snoop filter with multiple (>1) holders of the requested data.
system.tol2bus.snoop_filter.hit_multi_snoops        36544                       # Number of snoops hitting in the snoop filter with multiple (>1) holders of the requested data.
system.tol2bus.snoop_filter.hit_single_requests     16449279                       # Number of requests hitting in the snoop filter with a single holder of the requested data.
system.tol2bus.snoop_filter.hit_single_snoops      1412193                       # Number of snoops hitting in the snoop filter with a single holder of the requested data.
system.tol2bus.snoop_filter.tot_requests     32960766                       # Total number of requests made to the snoop filter.
system.tol2bus.snoop_filter.tot_snoops        1448737                       # Total number of snoops made to the snoop filter.
system.membus.pwrStateResidencyTicks::UNDEFINED 1753780187500                       # Cumulative time (in ticks) in various power states
system.membus.trans_dist::ReadResp            9872851                       # Transaction distribution
system.membus.trans_dist::WritebackDirty       528526                       # Transaction distribution
system.membus.trans_dist::CleanEvict          9639763                       # Transaction distribution
system.membus.trans_dist::UpgradeReq             6991                       # Transaction distribution
system.membus.trans_dist::ReadExReq            301462                       # Transaction distribution
system.membus.trans_dist::ReadExResp           301462                       # Transaction distribution
system.membus.trans_dist::ReadSharedReq       9872851                       # Transaction distribution
system.membus.pkt_count_system.l2.mem_side::system.mem_ctrls.port     30523906                       # Packet count per connected master and slave (bytes)
system.membus.pkt_count_system.l2.mem_side::total     30523906                       # Packet count per connected master and slave (bytes)
system.membus.pkt_count::total               30523906                       # Packet count per connected master and slave (bytes)
system.membus.pkt_size_system.l2.mem_side::system.mem_ctrls.port    684981696                       # Cumulative packet size per connected master and slave (bytes)
system.membus.pkt_size_system.l2.mem_side::total    684981696                       # Cumulative packet size per connected master and slave (bytes)
system.membus.pkt_size::total               684981696                       # Cumulative packet size per connected master and slave (bytes)
system.membus.snoops                                0                       # Total snoops (count)
system.membus.snoopTraffic                          0                       # Total snoop traffic (bytes)
system.membus.snoop_fanout::samples          10181304                       # Request fanout histogram
system.membus.snoop_fanout::mean                    0                       # Request fanout histogram
system.membus.snoop_fanout::stdev                   0                       # Request fanout histogram
system.membus.snoop_fanout::underflows              0      0.00%      0.00% # Request fanout histogram
system.membus.snoop_fanout::0                10181304    100.00%    100.00% # Request fanout histogram
system.membus.snoop_fanout::1                       0      0.00%    100.00% # Request fanout histogram
system.membus.snoop_fanout::overflows               0      0.00%    100.00% # Request fanout histogram
system.membus.snoop_fanout::min_value               0                       # Request fanout histogram
system.membus.snoop_fanout::max_value               0                       # Request fanout histogram
system.membus.snoop_fanout::total            10181304                       # Request fanout histogram
system.membus.reqLayer2.occupancy         24826202571                       # Layer occupancy (ticks)
system.membus.reqLayer2.utilization               3.8                       # Layer utilization (%)
system.membus.respLayer1.occupancy        53841243250                       # Layer occupancy (ticks)
system.membus.respLayer1.utilization              8.2                       # Layer utilization (%)
system.switch_cpus.pwrStateResidencyTicks::OFF 1753780187500                       # Cumulative time (in ticks) in various power states
system.switch_cpus.dtb.walker.pwrStateResidencyTicks::UNDEFINED 1753780187500                       # Cumulative time (in ticks) in various power states
system.switch_cpus.itb.walker.pwrStateResidencyTicks::UNDEFINED 1753780187500                       # Cumulative time (in ticks) in various power states
system.tol2bus.pwrStateResidencyTicks::UNDEFINED 1753780187500                       # Cumulative time (in ticks) in various power states
system.tol2bus.trans_dist::ReadResp          15926120                       # Transaction distribution
system.tol2bus.trans_dist::WritebackDirty      1900860                       # Transaction distribution
system.tol2bus.trans_dist::WritebackClean      5563976                       # Transaction distribution
system.tol2bus.trans_dist::CleanEvict        20188984                       # Transaction distribution
system.tol2bus.trans_dist::UpgradeReq           37919                       # Transaction distribution
system.tol2bus.trans_dist::UpgradeResp          37919                       # Transaction distribution
system.tol2bus.trans_dist::ReadExReq           553283                       # Transaction distribution
system.tol2bus.trans_dist::ReadExResp          553283                       # Transaction distribution
system.tol2bus.trans_dist::ReadCleanReq       5599935                       # Transaction distribution
system.tol2bus.trans_dist::ReadSharedReq     10326185                       # Transaction distribution
system.tol2bus.pkt_count_system.cpu.icache.mem_side::system.l2.cpu_side     16722494                       # Packet count per connected master and slave (bytes)
system.tol2bus.pkt_count_system.cpu.dcache.mem_side::system.l2.cpu_side     32714242                       # Packet count per connected master and slave (bytes)
system.tol2bus.pkt_count::total              49436736                       # Packet count per connected master and slave (bytes)
system.tol2bus.pkt_size_system.cpu.icache.mem_side::system.l2.cpu_side    711843776                       # Cumulative packet size per connected master and slave (bytes)
system.tol2bus.pkt_size_system.cpu.dcache.mem_side::system.l2.cpu_side    784115328                       # Cumulative packet size per connected master and slave (bytes)
system.tol2bus.pkt_size::total             1495959104                       # Cumulative packet size per connected master and slave (bytes)
system.tol2bus.snoops                        11251728                       # Total snoops (count)
system.tol2bus.snoopTraffic                  36472192                       # Total snoop traffic (bytes)
system.tol2bus.snoop_fanout::samples         27727698                       # Request fanout histogram
system.tol2bus.snoop_fanout::mean            0.067867                       # Request fanout histogram
system.tol2bus.snoop_fanout::stdev           0.256704                       # Request fanout histogram
system.tol2bus.snoop_fanout::underflows             0      0.00%      0.00% # Request fanout histogram
system.tol2bus.snoop_fanout::0               25882455     93.35%     93.35% # Request fanout histogram
system.tol2bus.snoop_fanout::1                1808699      6.52%     99.87% # Request fanout histogram
system.tol2bus.snoop_fanout::2                  36544      0.13%    100.00% # Request fanout histogram
system.tol2bus.snoop_fanout::3                      0      0.00%    100.00% # Request fanout histogram
system.tol2bus.snoop_fanout::4                      0      0.00%    100.00% # Request fanout histogram
system.tol2bus.snoop_fanout::overflows              0      0.00%    100.00% # Request fanout histogram
system.tol2bus.snoop_fanout::min_value              0                       # Request fanout histogram
system.tol2bus.snoop_fanout::max_value              2                       # Request fanout histogram
system.tol2bus.snoop_fanout::total           27727698                       # Request fanout histogram
system.tol2bus.reqLayer0.occupancy        23417002879                       # Layer occupancy (ticks)
system.tol2bus.reqLayer0.utilization              3.6                       # Layer utilization (%)
system.tol2bus.respLayer1.occupancy       16341057197                       # Layer occupancy (ticks)
system.tol2bus.respLayer1.utilization             2.5                       # Layer utilization (%)
system.tol2bus.respLayer0.occupancy        8406633012                       # Layer occupancy (ticks)
system.tol2bus.respLayer0.utilization             1.3                       # Layer utilization (%)
system.voltage_domain.voltage                       1                       # Voltage in Volts
system.clk_domain.clock                          1000                       # Clock period in ticks
system.l2.pwrStateResidencyTicks::UNDEFINED 1753780187500                       # Cumulative time (in ticks) in various power states
system.l2.demand_hits::.switch_cpus.inst      4189615                       # number of demand (read+write) hits
system.l2.demand_hits::.switch_cpus.data      2072372                       # number of demand (read+write) hits
system.l2.demand_hits::total                  6261987                       # number of demand (read+write) hits
system.l2.overall_hits::.switch_cpus.inst      4189615                       # number of overall hits
system.l2.overall_hits::.switch_cpus.data      2072372                       # number of overall hits
system.l2.overall_hits::total                 6261987                       # number of overall hits
system.l2.demand_misses::.switch_cpus.inst      1368968                       # number of demand (read+write) misses
system.l2.demand_misses::.switch_cpus.data      8807096                       # number of demand (read+write) misses
system.l2.demand_misses::total               10176064                       # number of demand (read+write) misses
system.l2.overall_misses::.switch_cpus.inst      1368968                       # number of overall misses
system.l2.overall_misses::.switch_cpus.data      8807096                       # number of overall misses
system.l2.overall_misses::total              10176064                       # number of overall misses
system.l2.demand_miss_latency::.switch_cpus.inst 115859143500                       # number of demand (read+write) miss cycles
system.l2.demand_miss_latency::.switch_cpus.data 725973258000                       # number of demand (read+write) miss cycles
system.l2.demand_miss_latency::total     841832401500                       # number of demand (read+write) miss cycles
system.l2.overall_miss_latency::.switch_cpus.inst 115859143500                       # number of overall miss cycles
system.l2.overall_miss_latency::.switch_cpus.data 725973258000                       # number of overall miss cycles
system.l2.overall_miss_latency::total    841832401500                       # number of overall miss cycles
system.l2.demand_accesses::.switch_cpus.inst      5558583                       # number of demand (read+write) accesses
system.l2.demand_accesses::.switch_cpus.data     10879468                       # number of demand (read+write) accesses
system.l2.demand_accesses::total             16438051                       # number of demand (read+write) accesses
system.l2.overall_accesses::.switch_cpus.inst      5558583                       # number of overall (read+write) accesses
system.l2.overall_accesses::.switch_cpus.data     10879468                       # number of overall (read+write) accesses
system.l2.overall_accesses::total            16438051                       # number of overall (read+write) accesses
system.l2.demand_miss_rate::.switch_cpus.inst     0.246280                       # miss rate for demand accesses
system.l2.demand_miss_rate::.switch_cpus.data     0.809515                       # miss rate for demand accesses
system.l2.demand_miss_rate::total            0.619055                       # miss rate for demand accesses
system.l2.overall_miss_rate::.switch_cpus.inst     0.246280                       # miss rate for overall accesses
system.l2.overall_miss_rate::.switch_cpus.data     0.809515                       # miss rate for overall accesses
system.l2.overall_miss_rate::total           0.619055                       # miss rate for overall accesses
system.l2.demand_avg_miss_latency::.switch_cpus.inst 84632.470226                       # average overall miss latency
system.l2.demand_avg_miss_latency::.switch_cpus.data 82430.492185                       # average overall miss latency
system.l2.demand_avg_miss_latency::total 82726.720420                       # average overall miss latency
system.l2.overall_avg_miss_latency::.switch_cpus.inst 84632.470226                       # average overall miss latency
system.l2.overall_avg_miss_latency::.switch_cpus.data 82430.492185                       # average overall miss latency
system.l2.overall_avg_miss_latency::total 82726.720420                       # average overall miss latency
system.l2.blocked_cycles::no_mshrs                  0                       # number of cycles access was blocked
system.l2.blocked_cycles::no_targets                0                       # number of cycles access was blocked
system.l2.blocked::no_mshrs                         0                       # number of cycles access was blocked
system.l2.blocked::no_targets                       0                       # number of cycles access was blocked
system.l2.avg_blocked_cycles::no_mshrs            nan                       # average number of cycles each access was blocked
system.l2.avg_blocked_cycles::no_targets          nan                       # average number of cycles each access was blocked
system.l2.writebacks::.writebacks              528526                       # number of writebacks
system.l2.writebacks::total                    528526                       # number of writebacks
system.l2.demand_mshr_hits::.switch_cpus.inst          856                       # number of demand (read+write) MSHR hits
system.l2.demand_mshr_hits::.switch_cpus.data           43                       # number of demand (read+write) MSHR hits
system.l2.demand_mshr_hits::total                 899                       # number of demand (read+write) MSHR hits
system.l2.overall_mshr_hits::.switch_cpus.inst          856                       # number of overall MSHR hits
system.l2.overall_mshr_hits::.switch_cpus.data           43                       # number of overall MSHR hits
system.l2.overall_mshr_hits::total                899                       # number of overall MSHR hits
system.l2.demand_mshr_misses::.switch_cpus.inst      1368112                       # number of demand (read+write) MSHR misses
system.l2.demand_mshr_misses::.switch_cpus.data      8807053                       # number of demand (read+write) MSHR misses
system.l2.demand_mshr_misses::total          10175165                       # number of demand (read+write) MSHR misses
system.l2.overall_mshr_misses::.switch_cpus.inst      1368112                       # number of overall MSHR misses
system.l2.overall_mshr_misses::.switch_cpus.data      8807053                       # number of overall MSHR misses
system.l2.overall_mshr_misses::total         10175165                       # number of overall MSHR misses
system.l2.demand_mshr_miss_latency::.switch_cpus.inst 102131423005                       # number of demand (read+write) MSHR miss cycles
system.l2.demand_mshr_miss_latency::.switch_cpus.data 637900131000                       # number of demand (read+write) MSHR miss cycles
system.l2.demand_mshr_miss_latency::total 740031554005                       # number of demand (read+write) MSHR miss cycles
system.l2.overall_mshr_miss_latency::.switch_cpus.inst 102131423005                       # number of overall MSHR miss cycles
system.l2.overall_mshr_miss_latency::.switch_cpus.data 637900131000                       # number of overall MSHR miss cycles
system.l2.overall_mshr_miss_latency::total 740031554005                       # number of overall MSHR miss cycles
system.l2.demand_mshr_miss_rate::.switch_cpus.inst     0.246126                       # mshr miss rate for demand accesses
system.l2.demand_mshr_miss_rate::.switch_cpus.data     0.809511                       # mshr miss rate for demand accesses
system.l2.demand_mshr_miss_rate::total       0.619001                       # mshr miss rate for demand accesses
system.l2.overall_mshr_miss_rate::.switch_cpus.inst     0.246126                       # mshr miss rate for overall accesses
system.l2.overall_mshr_miss_rate::.switch_cpus.data     0.809511                       # mshr miss rate for overall accesses
system.l2.overall_mshr_miss_rate::total      0.619001                       # mshr miss rate for overall accesses
system.l2.demand_avg_mshr_miss_latency::.switch_cpus.inst 74651.361150                       # average overall mshr miss latency
system.l2.demand_avg_mshr_miss_latency::.switch_cpus.data 72430.599770                       # average overall mshr miss latency
system.l2.demand_avg_mshr_miss_latency::total 72729.194466                       # average overall mshr miss latency
system.l2.overall_avg_mshr_miss_latency::.switch_cpus.inst 74651.361150                       # average overall mshr miss latency
system.l2.overall_avg_mshr_miss_latency::.switch_cpus.data 72430.599770                       # average overall mshr miss latency
system.l2.overall_avg_mshr_miss_latency::total 72729.194466                       # average overall mshr miss latency
system.l2.replacements                       11210376                       # number of replacements
system.l2.WritebackDirty_hits::.writebacks      1372334                       # number of WritebackDirty hits
system.l2.WritebackDirty_hits::total          1372334                       # number of WritebackDirty hits
system.l2.WritebackDirty_accesses::.writebacks      1372334                       # number of WritebackDirty accesses(hits+misses)
system.l2.WritebackDirty_accesses::total      1372334                       # number of WritebackDirty accesses(hits+misses)
system.l2.WritebackClean_hits::.writebacks      5514652                       # number of WritebackClean hits
system.l2.WritebackClean_hits::total          5514652                       # number of WritebackClean hits
system.l2.WritebackClean_accesses::.writebacks      5514652                       # number of WritebackClean accesses(hits+misses)
system.l2.WritebackClean_accesses::total      5514652                       # number of WritebackClean accesses(hits+misses)
system.l2.CleanEvict_mshr_misses::.writebacks       303172                       # number of CleanEvict MSHR misses
system.l2.CleanEvict_mshr_misses::total        303172                       # number of CleanEvict MSHR misses
system.l2.CleanEvict_mshr_miss_rate::.writebacks          inf                       # mshr miss rate for CleanEvict accesses
system.l2.CleanEvict_mshr_miss_rate::total          inf                       # mshr miss rate for CleanEvict accesses
system.l2.UpgradeReq_hits::.switch_cpus.data        31780                       # number of UpgradeReq hits
system.l2.UpgradeReq_hits::total                31780                       # number of UpgradeReq hits
system.l2.UpgradeReq_misses::.switch_cpus.data         6139                       # number of UpgradeReq misses
system.l2.UpgradeReq_misses::total               6139                       # number of UpgradeReq misses
system.l2.UpgradeReq_miss_latency::.switch_cpus.data     48222500                       # number of UpgradeReq miss cycles
system.l2.UpgradeReq_miss_latency::total     48222500                       # number of UpgradeReq miss cycles
system.l2.UpgradeReq_accesses::.switch_cpus.data        37919                       # number of UpgradeReq accesses(hits+misses)
system.l2.UpgradeReq_accesses::total            37919                       # number of UpgradeReq accesses(hits+misses)
system.l2.UpgradeReq_miss_rate::.switch_cpus.data     0.161898                       # miss rate for UpgradeReq accesses
system.l2.UpgradeReq_miss_rate::total        0.161898                       # miss rate for UpgradeReq accesses
system.l2.UpgradeReq_avg_miss_latency::.switch_cpus.data  7855.106695                       # average UpgradeReq miss latency
system.l2.UpgradeReq_avg_miss_latency::total  7855.106695                       # average UpgradeReq miss latency
system.l2.UpgradeReq_mshr_misses::.switch_cpus.data         6139                       # number of UpgradeReq MSHR misses
system.l2.UpgradeReq_mshr_misses::total          6139                       # number of UpgradeReq MSHR misses
system.l2.UpgradeReq_mshr_miss_latency::.switch_cpus.data    120457998                       # number of UpgradeReq MSHR miss cycles
system.l2.UpgradeReq_mshr_miss_latency::total    120457998                       # number of UpgradeReq MSHR miss cycles
system.l2.UpgradeReq_mshr_miss_rate::.switch_cpus.data     0.161898                       # mshr miss rate for UpgradeReq accesses
system.l2.UpgradeReq_mshr_miss_rate::total     0.161898                       # mshr miss rate for UpgradeReq accesses
system.l2.UpgradeReq_avg_mshr_miss_latency::.switch_cpus.data 19621.762176                       # average UpgradeReq mshr miss latency
system.l2.UpgradeReq_avg_mshr_miss_latency::total 19621.762176                       # average UpgradeReq mshr miss latency
system.l2.ReadExReq_hits::.switch_cpus.data       250969                       # number of ReadExReq hits
system.l2.ReadExReq_hits::total                250969                       # number of ReadExReq hits
system.l2.ReadExReq_misses::.switch_cpus.data       302314                       # number of ReadExReq misses
system.l2.ReadExReq_misses::total              302314                       # number of ReadExReq misses
system.l2.ReadExReq_miss_latency::.switch_cpus.data  24142055500                       # number of ReadExReq miss cycles
system.l2.ReadExReq_miss_latency::total   24142055500                       # number of ReadExReq miss cycles
system.l2.ReadExReq_accesses::.switch_cpus.data       553283                       # number of ReadExReq accesses(hits+misses)
system.l2.ReadExReq_accesses::total            553283                       # number of ReadExReq accesses(hits+misses)
system.l2.ReadExReq_miss_rate::.switch_cpus.data     0.546400                       # miss rate for ReadExReq accesses
system.l2.ReadExReq_miss_rate::total         0.546400                       # miss rate for ReadExReq accesses
system.l2.ReadExReq_avg_miss_latency::.switch_cpus.data 79857.550428                       # average ReadExReq miss latency
system.l2.ReadExReq_avg_miss_latency::total 79857.550428                       # average ReadExReq miss latency
system.l2.ReadExReq_mshr_misses::.switch_cpus.data       302314                       # number of ReadExReq MSHR misses
system.l2.ReadExReq_mshr_misses::total         302314                       # number of ReadExReq MSHR misses
system.l2.ReadExReq_mshr_miss_latency::.switch_cpus.data  21118915500                       # number of ReadExReq MSHR miss cycles
[...]
system.cpu.dtb_walker_cache.blocked::no_mshrs            0                       # number of cycles access was blocked
system.cpu.dtb_walker_cache.blocked::no_targets            0                       # number of cycles access was blocked
system.cpu.dtb_walker_cache.avg_blocked_cycles::no_mshrs          nan                       # average number of cycles each access was blocked
system.cpu.dtb_walker_cache.avg_blocked_cycles::no_targets          nan                       # average number of cycles each access was blocked
system.cpu.dtb_walker_cache.replacements            0                       # number of replacements
system.cpu.dtb_walker_cache.tags.pwrStateResidencyTicks::UNDEFINED 1753780187500                       # Cumulative time (in ticks) in various power states
system.cpu.dtb_walker_cache.tags.tagsinuse            0                       # Cycle average of tags in use
system.cpu.dtb_walker_cache.tags.total_refs            0                       # Total number of references to valid blocks.
system.cpu.dtb_walker_cache.tags.sampled_refs            0                       # Sample count of references to valid blocks.
system.cpu.dtb_walker_cache.tags.avg_refs          nan                       # Average number of references to valid blocks.
system.cpu.dtb_walker_cache.tags.warmup_cycle            0                       # Cycle when the warmup percentage was hit.
system.cpu.dtb_walker_cache.tags.tag_accesses            0                       # Number of tag accesses
system.cpu.dtb_walker_cache.tags.data_accesses            0                       # Number of data accesses
system.cpu.dcache.pwrStateResidencyTicks::UNDEFINED 1753780187500                       # Cumulative time (in ticks) in various power states
system.cpu.dcache.demand_hits::.cpu.data    365980450                       # number of demand (read+write) hits
system.cpu.dcache.demand_hits::.switch_cpus.data    181191375                       # number of demand (read+write) hits
system.cpu.dcache.demand_hits::total        547171825                       # number of demand (read+write) hits
system.cpu.dcache.overall_hits::.cpu.data    366243289                       # number of overall hits
system.cpu.dcache.overall_hits::.switch_cpus.data    182354291                       # number of overall hits
system.cpu.dcache.overall_hits::total       548597580                       # number of overall hits
system.cpu.dcache.demand_misses::.cpu.data     18856491                       # number of demand (read+write) misses
system.cpu.dcache.demand_misses::.switch_cpus.data     24610276                       # number of demand (read+write) misses
system.cpu.dcache.demand_misses::total       43466767                       # number of demand (read+write) misses
system.cpu.dcache.overall_misses::.cpu.data     18880258                       # number of overall misses
system.cpu.dcache.overall_misses::.switch_cpus.data     24650586                       # number of overall misses
system.cpu.dcache.overall_misses::total      43530844                       # number of overall misses
system.cpu.dcache.demand_miss_latency::.switch_cpus.data 1681127426802                       # number of demand (read+write) miss cycles
system.cpu.dcache.demand_miss_latency::total 1681127426802                       # number of demand (read+write) miss cycles
system.cpu.dcache.overall_miss_latency::.switch_cpus.data 1681127426802                       # number of overall miss cycles
system.cpu.dcache.overall_miss_latency::total 1681127426802                       # number of overall miss cycles
system.cpu.dcache.demand_accesses::.cpu.data    384836941                       # number of demand (read+write) accesses
system.cpu.dcache.demand_accesses::.switch_cpus.data    205801651                       # number of demand (read+write) accesses
system.cpu.dcache.demand_accesses::total    590638592                       # number of demand (read+write) accesses
system.cpu.dcache.overall_accesses::.cpu.data    385123547                       # number of overall (read+write) accesses
system.cpu.dcache.overall_accesses::.switch_cpus.data    207004877                       # number of overall (read+write) accesses
system.cpu.dcache.overall_accesses::total    592128424                       # number of overall (read+write) accesses
system.cpu.dcache.demand_miss_rate::.cpu.data     0.048999                       # miss rate for demand accesses
system.cpu.dcache.demand_miss_rate::.switch_cpus.data     0.119583                       # miss rate for demand accesses
system.cpu.dcache.demand_miss_rate::total     0.073593                       # miss rate for demand accesses
system.cpu.dcache.overall_miss_rate::.cpu.data     0.049024                       # miss rate for overall accesses
system.cpu.dcache.overall_miss_rate::.switch_cpus.data     0.119082                       # miss rate for overall accesses
system.cpu.dcache.overall_miss_rate::total     0.073516                       # miss rate for overall accesses
system.cpu.dcache.demand_avg_miss_latency::.switch_cpus.data 68309.978596                       # average overall miss latency
system.cpu.dcache.demand_avg_miss_latency::total 38676.155206                       # average overall miss latency
system.cpu.dcache.overall_avg_miss_latency::.switch_cpus.data 68198.274345                       # average overall miss latency
system.cpu.dcache.overall_avg_miss_latency::total 38619.224263                       # average overall miss latency
system.cpu.dcache.blocked_cycles::no_mshrs     34765628                       # number of cycles access was blocked
system.cpu.dcache.blocked_cycles::no_targets       537261                       # number of cycles access was blocked
system.cpu.dcache.blocked::no_mshrs            327057                       # number of cycles access was blocked
system.cpu.dcache.blocked::no_targets            4633                       # number of cycles access was blocked
system.cpu.dcache.avg_blocked_cycles::no_mshrs   106.298376                       # average number of cycles each access was blocked
system.cpu.dcache.avg_blocked_cycles::no_targets   115.963954                       # average number of cycles each access was blocked
system.cpu.dcache.writebacks::.writebacks      4420491                       # number of writebacks
system.cpu.dcache.writebacks::total           4420491                       # number of writebacks
system.cpu.dcache.demand_mshr_hits::.switch_cpus.data     13707240                       # number of demand (read+write) MSHR hits
system.cpu.dcache.demand_mshr_hits::total     13707240                       # number of demand (read+write) MSHR hits
system.cpu.dcache.overall_mshr_hits::.switch_cpus.data     13707240                       # number of overall MSHR hits
system.cpu.dcache.overall_mshr_hits::total     13707240                       # number of overall MSHR hits
system.cpu.dcache.demand_mshr_misses::.switch_cpus.data     10903036                       # number of demand (read+write) MSHR misses
system.cpu.dcache.demand_mshr_misses::total     10903036                       # number of demand (read+write) MSHR misses
system.cpu.dcache.overall_mshr_misses::.switch_cpus.data     10916943                       # number of overall MSHR misses
system.cpu.dcache.overall_mshr_misses::total     10916943                       # number of overall MSHR misses
system.cpu.dcache.demand_mshr_miss_latency::.switch_cpus.data 764548890802                       # number of demand (read+write) MSHR miss cycles
system.cpu.dcache.demand_mshr_miss_latency::total 764548890802                       # number of demand (read+write) MSHR miss cycles
system.cpu.dcache.overall_mshr_miss_latency::.switch_cpus.data 765361326802                       # number of overall MSHR miss cycles
system.cpu.dcache.overall_mshr_miss_latency::total 765361326802                       # number of overall MSHR miss cycles
system.cpu.dcache.demand_mshr_miss_rate::.switch_cpus.data     0.052978                       # mshr miss rate for demand accesses
system.cpu.dcache.demand_mshr_miss_rate::total     0.018460                       # mshr miss rate for demand accesses
system.cpu.dcache.overall_mshr_miss_rate::.switch_cpus.data     0.052738                       # mshr miss rate for overall accesses
system.cpu.dcache.overall_mshr_miss_rate::total     0.018437                       # mshr miss rate for overall accesses
system.cpu.dcache.demand_avg_mshr_miss_latency::.switch_cpus.data 70122.568687                       # average overall mshr miss latency
system.cpu.dcache.demand_avg_mshr_miss_latency::total 70122.568687                       # average overall mshr miss latency
system.cpu.dcache.overall_avg_mshr_miss_latency::.switch_cpus.data 70107.659883                       # average overall mshr miss latency
system.cpu.dcache.overall_avg_mshr_miss_latency::total 70107.659883                       # average overall mshr miss latency
system.cpu.dcache.replacements               29759214                       # number of replacements
system.cpu.dcache.ReadReq_hits::.cpu.data    272114231                       # number of ReadReq hits
system.cpu.dcache.ReadReq_hits::.switch_cpus.data    138435100                       # number of ReadReq hits
system.cpu.dcache.ReadReq_hits::total       410549331                       # number of ReadReq hits
system.cpu.dcache.ReadReq_misses::.cpu.data     17499738                       # number of ReadReq misses
system.cpu.dcache.ReadReq_misses::.switch_cpus.data     24001478                       # number of ReadReq misses
system.cpu.dcache.ReadReq_misses::total      41501216                       # number of ReadReq misses
system.cpu.dcache.ReadReq_miss_latency::.switch_cpus.data 1651917219500                       # number of ReadReq miss cycles
system.cpu.dcache.ReadReq_miss_latency::total 1651917219500                       # number of ReadReq miss cycles
system.cpu.dcache.ReadReq_accesses::.cpu.data    289613969                       # number of ReadReq accesses(hits+misses)
system.cpu.dcache.ReadReq_accesses::.switch_cpus.data    162436578                       # number of ReadReq accesses(hits+misses)
system.cpu.dcache.ReadReq_accesses::total    452050547                       # number of ReadReq accesses(hits+misses)
system.cpu.dcache.ReadReq_miss_rate::.cpu.data     0.060424                       # miss rate for ReadReq accesses
system.cpu.dcache.ReadReq_miss_rate::.switch_cpus.data     0.147759                       # miss rate for ReadReq accesses
system.cpu.dcache.ReadReq_miss_rate::total     0.091807                       # miss rate for ReadReq accesses
system.cpu.dcache.ReadReq_avg_miss_latency::.switch_cpus.data 68825.645633                       # average ReadReq miss latency
system.cpu.dcache.ReadReq_avg_miss_latency::total 39804.067898                       # average ReadReq miss latency
system.cpu.dcache.ReadReq_mshr_hits::.switch_cpus.data     13687987                       # number of ReadReq MSHR hits
system.cpu.dcache.ReadReq_mshr_hits::total     13687987                       # number of ReadReq MSHR hits
system.cpu.dcache.ReadReq_mshr_misses::.switch_cpus.data     10313491                       # number of ReadReq MSHR misses
system.cpu.dcache.ReadReq_mshr_misses::total     10313491                       # number of ReadReq MSHR misses
system.cpu.dcache.ReadReq_mshr_miss_latency::.switch_cpus.data 736276267000                       # number of ReadReq MSHR miss cycles
system.cpu.dcache.ReadReq_mshr_miss_latency::total 736276267000                       # number of ReadReq MSHR miss cycles
system.cpu.dcache.ReadReq_mshr_miss_rate::.switch_cpus.data     0.063492                       # mshr miss rate for ReadReq accesses
system.cpu.dcache.ReadReq_mshr_miss_rate::total     0.022815                       # mshr miss rate for ReadReq accesses
system.cpu.dcache.ReadReq_avg_mshr_miss_latency::.switch_cpus.data 71389.626170                       # average ReadReq mshr miss latency
system.cpu.dcache.ReadReq_avg_mshr_miss_latency::total 71389.626170                       # average ReadReq mshr miss latency
system.cpu.dcache.WriteReq_hits::.cpu.data     93866219                       # number of WriteReq hits
system.cpu.dcache.WriteReq_hits::.switch_cpus.data     42756275                       # number of WriteReq hits
system.cpu.dcache.WriteReq_hits::total      136622494                       # number of WriteReq hits
system.cpu.dcache.WriteReq_misses::.cpu.data      1356753                       # number of WriteReq misses
system.cpu.dcache.WriteReq_misses::.switch_cpus.data       608798                       # number of WriteReq misses
system.cpu.dcache.WriteReq_misses::total      1965551                       # number of WriteReq misses
system.cpu.dcache.WriteReq_miss_latency::.switch_cpus.data  29210207302                       # number of WriteReq miss cycles
system.cpu.dcache.WriteReq_miss_latency::total  29210207302                       # number of WriteReq miss cycles
system.cpu.dcache.WriteReq_accesses::.cpu.data     95222972                       # number of WriteReq accesses(hits+misses)
system.cpu.dcache.WriteReq_accesses::.switch_cpus.data     43365073                       # number of WriteReq accesses(hits+misses)
system.cpu.dcache.WriteReq_accesses::total    138588045                       # number of WriteReq accesses(hits+misses)
system.cpu.dcache.WriteReq_miss_rate::.cpu.data     0.014248                       # miss rate for WriteReq accesses
system.cpu.dcache.WriteReq_miss_rate::.switch_cpus.data     0.014039                       # miss rate for WriteReq accesses
system.cpu.dcache.WriteReq_miss_rate::total     0.014183                       # miss rate for WriteReq accesses
system.cpu.dcache.WriteReq_avg_miss_latency::.switch_cpus.data 47980.130194                       # average WriteReq miss latency
system.cpu.dcache.WriteReq_avg_miss_latency::total 14861.078294                       # average WriteReq miss latency
system.cpu.dcache.WriteReq_mshr_hits::.switch_cpus.data        19253                       # number of WriteReq MSHR hits
system.cpu.dcache.WriteReq_mshr_hits::total        19253                       # number of WriteReq MSHR hits
system.cpu.dcache.WriteReq_mshr_misses::.switch_cpus.data       589545                       # number of WriteReq MSHR misses
system.cpu.dcache.WriteReq_mshr_misses::total       589545                       # number of WriteReq MSHR misses
system.cpu.dcache.WriteReq_mshr_miss_latency::.switch_cpus.data  28272623802                       # number of WriteReq MSHR miss cycles
system.cpu.dcache.WriteReq_mshr_miss_latency::total  28272623802                       # number of WriteReq MSHR miss cycles
system.cpu.dcache.WriteReq_mshr_miss_rate::.switch_cpus.data     0.013595                       # mshr miss rate for WriteReq accesses
system.cpu.dcache.WriteReq_mshr_miss_rate::total     0.004254                       # mshr miss rate for WriteReq accesses
system.cpu.dcache.WriteReq_avg_mshr_miss_latency::.switch_cpus.data 47956.684904                       # average WriteReq mshr miss latency
system.cpu.dcache.WriteReq_avg_mshr_miss_latency::total 47956.684904                       # average WriteReq mshr miss latency
system.cpu.dcache.SoftPFReq_hits::.cpu.data       262839                       # number of SoftPFReq hits
system.cpu.dcache.SoftPFReq_hits::.switch_cpus.data      1162916                       # number of SoftPFReq hits
system.cpu.dcache.SoftPFReq_hits::total       1425755                       # number of SoftPFReq hits
system.cpu.dcache.SoftPFReq_misses::.cpu.data        23767                       # number of SoftPFReq misses
system.cpu.dcache.SoftPFReq_misses::.switch_cpus.data        40310                       # number of SoftPFReq misses
system.cpu.dcache.SoftPFReq_misses::total        64077                       # number of SoftPFReq misses
system.cpu.dcache.SoftPFReq_accesses::.cpu.data       286606                       # number of SoftPFReq accesses(hits+misses)
system.cpu.dcache.SoftPFReq_accesses::.switch_cpus.data      1203226                       # number of SoftPFReq accesses(hits+misses)
system.cpu.dcache.SoftPFReq_accesses::total      1489832                       # number of SoftPFReq accesses(hits+misses)
system.cpu.dcache.SoftPFReq_miss_rate::.cpu.data     0.082926                       # miss rate for SoftPFReq accesses
system.cpu.dcache.SoftPFReq_miss_rate::.switch_cpus.data     0.033502                       # miss rate for SoftPFReq accesses
system.cpu.dcache.SoftPFReq_miss_rate::total     0.043010                       # miss rate for SoftPFReq accesses
system.cpu.dcache.SoftPFReq_mshr_misses::.switch_cpus.data        13907                       # number of SoftPFReq MSHR misses
system.cpu.dcache.SoftPFReq_mshr_misses::total        13907                       # number of SoftPFReq MSHR misses
system.cpu.dcache.SoftPFReq_mshr_miss_latency::.switch_cpus.data    812436000                       # number of SoftPFReq MSHR miss cycles
system.cpu.dcache.SoftPFReq_mshr_miss_latency::total    812436000                       # number of SoftPFReq MSHR miss cycles
system.cpu.dcache.SoftPFReq_mshr_miss_rate::.switch_cpus.data     0.011558                       # mshr miss rate for SoftPFReq accesses
system.cpu.dcache.SoftPFReq_mshr_miss_rate::total     0.009335                       # mshr miss rate for SoftPFReq accesses
system.cpu.dcache.SoftPFReq_avg_mshr_miss_latency::.switch_cpus.data 58419.213346                       # average SoftPFReq mshr miss latency
system.cpu.dcache.SoftPFReq_avg_mshr_miss_latency::total 58419.213346                       # average SoftPFReq mshr miss latency
system.cpu.dcache.tags.pwrStateResidencyTicks::UNDEFINED 1753780187500                       # Cumulative time (in ticks) in various power states
system.cpu.dcache.tags.tagsinuse           511.994397                       # Cycle average of tags in use
system.cpu.dcache.tags.total_refs           578377927                       # Total number of references to valid blocks.
system.cpu.dcache.tags.sampled_refs          29759214                       # Sample count of references to valid blocks.
system.cpu.dcache.tags.avg_refs             19.435255                       # Average number of references to valid blocks.
system.cpu.dcache.tags.warmup_cycle              1000                       # Cycle when the warmup percentage was hit.
system.cpu.dcache.tags.occ_blocks::.cpu.data   320.582485                       # Average occupied blocks per requestor
system.cpu.dcache.tags.occ_blocks::.switch_cpus.data   191.411912                       # Average occupied blocks per requestor
system.cpu.dcache.tags.occ_percent::.cpu.data     0.626138                       # Average percentage of cache occupancy
system.cpu.dcache.tags.occ_percent::.switch_cpus.data     0.373851                       # Average percentage of cache occupancy
system.cpu.dcache.tags.occ_percent::total     0.999989                       # Average percentage of cache occupancy
system.cpu.dcache.tags.occ_task_id_blocks::1024          512                       # Occupied blocks per task id
system.cpu.dcache.tags.age_task_id_blocks_1024::0          174                       # Occupied blocks per task id
system.cpu.dcache.tags.age_task_id_blocks_1024::1          328                       # Occupied blocks per task id
system.cpu.dcache.tags.age_task_id_blocks_1024::2           10                       # Occupied blocks per task id
system.cpu.dcache.tags.occ_task_id_percent::1024            1                       # Percentage of cache occupancy per task id
system.cpu.dcache.tags.tag_accesses        2398273422                       # Number of tag accesses
system.cpu.dcache.tags.data_accesses       2398273422                       # Number of data accesses

---------- End Simulation Statistics   ----------
