
---------- Begin Simulation Statistics ----------
final_tick                               1983463718500                       # Number of ticks from beginning of simulation (restored from checkpoints and never reset)
host_inst_rate                                 203635                       # Simulator instruction rate (inst/s)
host_mem_usage                                4683948                       # Number of bytes of host memory used
host_op_rate                                   420709                       # Simulator op (including micro ops) rate (op/s)
host_seconds                                  7366.14                       # Real time elapsed on the host
host_tick_rate                              108687246                       # Simulator tick rate (ticks/s)
sim_freq                                 1000000000000                       # Frequency of simulated ticks
sim_insts                                  1500000001                       # Number of instructions simulated
sim_ops                                    3099000482                       # Number of ops (including micro ops) simulated
sim_seconds                                  0.800605                       # Number of seconds simulated
sim_ticks                                800605174500                       # Number of ticks simulated
system.cpu.committedInsts                           0                       # Number of instructions committed
system.cpu.committedOps                             0                       # Number of ops (including micro ops) committed
system.cpu.dtb.rdAccesses                           0                       # TLB accesses on read requests
system.cpu.dtb.rdMisses                             0                       # TLB misses on read requests
system.cpu.dtb.wrAccesses                           0                       # TLB accesses on write requests
system.cpu.dtb.wrMisses                             0                       # TLB misses on write requests
system.cpu.idle_fraction                            0                       # Percentage of idle cycles
system.cpu.itb.rdAccesses                           0                       # TLB accesses on read requests
system.cpu.itb.rdMisses                             0                       # TLB misses on read requests
system.cpu.itb.wrAccesses                           0                       # TLB accesses on write requests
system.cpu.itb.wrMisses                             0                       # TLB misses on write requests
system.cpu.not_idle_fraction                        1                       # Percentage of non-idle cycles
system.cpu.numCycles                                0                       # number of cpu cycles simulated
system.cpu.numWorkItemsCompleted                    0                       # number of work items this cpu completed
system.cpu.numWorkItemsStarted                      0                       # number of work items this cpu started
system.cpu.num_busy_cycles                          0                       # Number of busy cycles
system.cpu.num_conditional_control_insts            0                       # number of instructions that are conditional controls
system.cpu.num_fp_alu_accesses                      0                       # Number of float alu accesses
system.cpu.num_fp_insts                             0                       # number of float instructions
system.cpu.num_fp_register_reads                    0                       # number of times the floating registers were read
system.cpu.num_fp_register_writes                   0                       # number of times the floating registers were written
system.cpu.num_func_calls                           0                       # number of times a function call or return occured
system.cpu.num_idle_cycles                          0                       # Number of idle cycles
system.cpu.num_int_alu_accesses                     0                       # Number of integer alu accesses
system.cpu.num_int_insts                            0                       # number of integer instructions
system.cpu.num_int_register_reads                   0                       # number of times the integer registers were read
system.cpu.num_int_register_writes                  0                       # number of times the integer registers were written
system.cpu.num_load_insts                           0                       # Number of load instructions
system.cpu.num_mem_refs                             0                       # number of memory refs
system.cpu.num_store_insts                          0                       # Number of store instructions
system.cpu.num_vec_alu_accesses                     0                       # Number of vector alu accesses
system.cpu.num_vec_insts                            0                       # number of vector instructions
system.cpu.num_vec_register_reads                   0                       # number of times the vector registers were read
system.cpu.num_vec_register_writes                  0                       # number of times the vector registers were written
system.cpu.op_class::No_OpClass                     0                       # Class of executed instruction
system.cpu.op_class::IntAlu                         0                       # Class of executed instruction
system.cpu.op_class::IntMult                        0                       # Class of executed instruction
system.cpu.op_class::IntDiv                         0                       # Class of executed instruction
system.cpu.op_class::FloatAdd                       0                       # Class of executed instruction
system.cpu.op_class::FloatCmp                       0                       # Class of executed instruction
system.cpu.op_class::FloatCvt                       0                       # Class of executed instruction
system.cpu.op_class::FloatMult                      0                       # Class of executed instruction
system.cpu.op_class::FloatMultAcc                   0                       # Class of executed instruction
system.cpu.op_class::FloatDiv                       0                       # Class of executed instruction
system.cpu.op_class::FloatMisc                      0                       # Class of executed instruction
system.cpu.op_class::FloatSqrt                      0                       # Class of executed instruction
system.cpu.op_class::SimdAdd                        0                       # Class of executed instruction
system.cpu.op_class::SimdAddAcc                     0                       # Class of executed instruction
system.cpu.op_class::SimdAlu                        0                       # Class of executed instruction
system.cpu.op_class::SimdCmp                        0                       # Class of executed instruction
system.cpu.op_class::SimdCvt                        0                       # Class of executed instruction
system.cpu.op_class::SimdMisc                       0                       # Class of executed instruction
system.cpu.op_class::SimdMult                       0                       # Class of executed instruction
system.cpu.op_class::SimdMultAcc                    0                       # Class of executed instruction
system.cpu.op_class::SimdShift                      0                       # Class of executed instruction
system.cpu.op_class::SimdShiftAcc                   0                       # Class of executed instruction
system.cpu.op_class::SimdDiv                        0                       # Class of executed instruction
system.cpu.op_class::SimdSqrt                       0                       # Class of executed instruction
system.cpu.op_class::SimdFloatAdd                   0                       # Class of executed instruction
system.cpu.op_class::SimdFloatAlu                   0                       # Class of executed instruction
system.cpu.op_class::SimdFloatCmp                   0                       # Class of executed instruction
system.cpu.op_class::SimdFloatCvt                   0                       # Class of executed instruction
system.cpu.op_class::SimdFloatDiv                   0                       # Class of executed instruction
system.cpu.op_class::SimdFloatMisc                  0                       # Class of executed instruction
system.cpu.op_class::SimdFloatMult                  0                       # Class of executed instruction
system.cpu.op_class::SimdFloatMultAcc               0                       # Class of executed instruction
system.cpu.op_class::SimdFloatSqrt                  0                       # Class of executed instruction
system.cpu.op_class::SimdReduceAdd                  0                       # Class of executed instruction
system.cpu.op_class::SimdReduceAlu                  0                       # Class of executed instruction
system.cpu.op_class::SimdReduceCmp                  0                       # Class of executed instruction
system.cpu.op_class::SimdFloatReduceAdd             0                       # Class of executed instruction
system.cpu.op_class::SimdFloatReduceCmp             0                       # Class of executed instruction
system.cpu.op_class::SimdAes                        0                       # Class of executed instruction
system.cpu.op_class::SimdAesMix                     0                       # Class of executed instruction
system.cpu.op_class::SimdSha1Hash                   0                       # Class of executed instruction
system.cpu.op_class::SimdSha1Hash2                  0                       # Class of executed instruction
system.cpu.op_class::SimdSha256Hash                 0                       # Class of executed instruction
system.cpu.op_class::SimdSha256Hash2                0                       # Class of executed instruction
system.cpu.op_class::SimdShaSigma2                  0                       # Class of executed instruction
system.cpu.op_class::SimdShaSigma3                  0                       # Class of executed instruction
system.cpu.op_class::SimdPredAlu                    0                       # Class of executed instruction
system.cpu.op_class::MemRead                        0                       # Class of executed instruction
system.cpu.op_class::MemWrite                       0                       # Class of executed instruction
system.cpu.op_class::FloatMemRead                   0                       # Class of executed instruction
system.cpu.op_class::FloatMemWrite                  0                       # Class of executed instruction
system.cpu.op_class::IprAccess                      0                       # Class of executed instruction
system.cpu.op_class::InstPrefetch                   0                       # Class of executed instruction
system.cpu.op_class::total                          0                       # Class of executed instruction
system.cpu.workload.numSyscalls                   110                       # Number of system calls
system.membus.snoop_filter.hit_multi_requests            0                       # Number of requests hitting in the snoop filter with multiple (>1) holders of the requested data.
system.membus.snoop_filter.hit_multi_snoops            0                       # Number of snoops hitting in the snoop filter with multiple (>1) holders of the requested data.
system.membus.snoop_filter.hit_single_requests      3971691                       # Number of requests hitting in the snoop filter with a single holder of the requested data.
system.membus.snoop_filter.hit_single_snoops            0                       # Number of snoops hitting in the snoop filter with a single holder of the requested data.
system.membus.snoop_filter.tot_requests       7941957                       # Total number of requests made to the snoop filter.
system.membus.snoop_filter.tot_snoops               0                       # Total number of snoops made to the snoop filter.
system.switch_cpus.branchPred.BTBCorrect            0                       # Number of correct BTB predictions (this stat may not work properly.
system.switch_cpus.branchPred.BTBHitPct      0.000000                       # BTB Hit Percentage
system.switch_cpus.branchPred.BTBHits               0                       # Number of BTB hits
system.switch_cpus.branchPred.BTBLookups    222313176                       # Number of BTB lookups
system.switch_cpus.branchPred.RASInCorrect       346603                       # Number of incorrect RAS predictions.
system.switch_cpus.branchPred.condIncorrect     25788591                       # Number of conditional branches incorrect
system.switch_cpus.branchPred.condPredicted    188574941                       # Number of conditional branches predicted
system.switch_cpus.branchPred.indirectHits     44986218                       # Number of indirect target hits.
system.switch_cpus.branchPred.indirectLookups    222313176                       # Number of indirect predictor lookups.
system.switch_cpus.branchPred.indirectMisses    177326958                       # Number of indirect misses.
system.switch_cpus.branchPred.lookups       249527865                       # Number of BP lookups
system.switch_cpus.branchPred.usedRAS        22929684                       # Number of times the RAS was used to get a target.
system.switch_cpus.branchPredindirectMispredicted     24107330                       # Number of mispredicted indirect branches.
system.switch_cpus.cc_regfile_reads         525666737                       # number of cc regfile reads
system.switch_cpus.cc_regfile_writes        300756649                       # number of cc regfile writes
system.switch_cpus.commit.amos                      0                       # Number of atomic instructions committed
system.switch_cpus.commit.branchMispredicts     25816324                       # The number of times a branch was mispredicted
system.switch_cpus.commit.branches          112614158                       # Number of branches committed
system.switch_cpus.commit.bw_lim_events      38771723                       # number cycles where commit BW limit reached
system.switch_cpus.commit.commitNonSpecStalls         9622                       # The number of times commit has been forced to stall to communicate backwards
system.switch_cpus.commit.commitSquashedInsts    495312875                       # The number of squashed insts skipped by commit
system.switch_cpus.commit.committedInsts    500000001                       # Number of instructions committed
system.switch_cpus.commit.committedOps     1032584838                       # Number of ops (including micro ops) committed
system.switch_cpus.commit.committed_per_cycle::samples   1007569698                       # Number of insts commited each cycle
system.switch_cpus.commit.committed_per_cycle::mean     1.024827                       # Number of insts commited each cycle
system.switch_cpus.commit.committed_per_cycle::stdev     1.985510                       # Number of insts commited each cycle
system.switch_cpus.commit.committed_per_cycle::underflows            0      0.00%      0.00% # Number of insts commited each cycle
system.switch_cpus.commit.committed_per_cycle::0    695068795     68.98%     68.98% # Number of insts commited each cycle
system.switch_cpus.commit.committed_per_cycle::1     79402917      7.88%     76.87% # Number of insts commited each cycle
system.switch_cpus.commit.committed_per_cycle::2     56647668      5.62%     82.49% # Number of insts commited each cycle
system.switch_cpus.commit.committed_per_cycle::3     79829579      7.92%     90.41% # Number of insts commited each cycle
system.switch_cpus.commit.committed_per_cycle::4     25666506      2.55%     92.96% # Number of insts commited each cycle
system.switch_cpus.commit.committed_per_cycle::5     13604486      1.35%     94.31% # Number of insts commited each cycle
system.switch_cpus.commit.committed_per_cycle::6     10510559      1.04%     95.35% # Number of insts commited each cycle
system.switch_cpus.commit.committed_per_cycle::7      8067465      0.80%     96.15% # Number of insts commited each cycle
system.switch_cpus.commit.committed_per_cycle::8     38771723      3.85%    100.00% # Number of insts commited each cycle
system.switch_cpus.commit.committed_per_cycle::overflows            0      0.00%    100.00% # Number of insts commited each cycle
system.switch_cpus.commit.committed_per_cycle::min_value            0                       # Number of insts commited each cycle
system.switch_cpus.commit.committed_per_cycle::max_value            8                       # Number of insts commited each cycle
system.switch_cpus.commit.committed_per_cycle::total   1007569698                       # Number of insts commited each cycle
system.switch_cpus.commit.fp_insts            3726123                       # Number of committed floating point instructions.
system.switch_cpus.commit.function_calls     12807154                       # Number of function calls committed.
system.switch_cpus.commit.int_insts        1028681813                       # Number of committed integer instructions.
system.switch_cpus.commit.loads             149680730                       # Number of loads committed
system.switch_cpus.commit.membars                5990                       # Number of memory barriers committed
system.switch_cpus.commit.op_class_0::No_OpClass      2213208      0.21%      0.21% # Class of committed instruction
system.switch_cpus.commit.op_class_0::IntAlu    787286315     76.24%     76.46% # Class of committed instruction
system.switch_cpus.commit.op_class_0::IntMult       993444      0.10%     76.55% # Class of committed instruction
system.switch_cpus.commit.op_class_0::IntDiv      2146902      0.21%     76.76% # Class of committed instruction
system.switch_cpus.commit.op_class_0::FloatAdd       126851      0.01%     76.77% # Class of committed instruction
system.switch_cpus.commit.op_class_0::FloatCmp            0      0.00%     76.77% # Class of committed instruction
system.switch_cpus.commit.op_class_0::FloatCvt            0      0.00%     76.77% # Class of committed instruction
system.switch_cpus.commit.op_class_0::FloatMult            0      0.00%     76.77% # Class of committed instruction
system.switch_cpus.commit.op_class_0::FloatMultAcc            0      0.00%     76.77% # Class of committed instruction
system.switch_cpus.commit.op_class_0::FloatDiv            0      0.00%     76.77% # Class of committed instruction
system.switch_cpus.commit.op_class_0::FloatMisc            0      0.00%     76.77% # Class of committed instruction
system.switch_cpus.commit.op_class_0::FloatSqrt            0      0.00%     76.77% # Class of committed instruction
system.switch_cpus.commit.op_class_0::SimdAdd         6150      0.00%     76.78% # Class of committed instruction
system.switch_cpus.commit.op_class_0::SimdAddAcc            0      0.00%     76.78% # Class of committed instruction
system.switch_cpus.commit.op_class_0::SimdAlu       297938      0.03%     76.80% # Class of committed instruction
system.switch_cpus.commit.op_class_0::SimdCmp            0      0.00%     76.80% # Class of committed instruction
system.switch_cpus.commit.op_class_0::SimdCvt        96022      0.01%     76.81% # Class of committed instruction
system.switch_cpus.commit.op_class_0::SimdMisc       977705      0.09%     76.91% # Class of committed instruction
system.switch_cpus.commit.op_class_0::SimdMult            0      0.00%     76.91% # Class of committed instruction
system.switch_cpus.commit.op_class_0::SimdMultAcc            0      0.00%     76.91% # Class of committed instruction
system.switch_cpus.commit.op_class_0::SimdShift         8988      0.00%     76.91% # Class of committed instruction
system.switch_cpus.commit.op_class_0::SimdShiftAcc            0      0.00%     76.91% # Class of committed instruction
system.switch_cpus.commit.op_class_0::SimdDiv            0      0.00%     76.91% # Class of committed instruction
system.switch_cpus.commit.op_class_0::SimdSqrt            0      0.00%     76.91% # Class of committed instruction
system.switch_cpus.commit.op_class_0::SimdFloatAdd            0      0.00%     76.91% # Class of committed instruction
system.switch_cpus.commit.op_class_0::SimdFloatAlu            0      0.00%     76.91% # Class of committed instruction
system.switch_cpus.commit.op_class_0::SimdFloatCmp            0      0.00%     76.91% # Class of committed instruction
system.switch_cpus.commit.op_class_0::SimdFloatCvt            0      0.00%     76.91% # Class of committed instruction
system.switch_cpus.commit.op_class_0::SimdFloatDiv            0      0.00%     76.91% # Class of committed instruction
system.switch_cpus.commit.op_class_0::SimdFloatMisc            0      0.00%     76.91% # Class of committed instruction
system.switch_cpus.commit.op_class_0::SimdFloatMult            0      0.00%     76.91% # Class of committed instruction
system.switch_cpus.commit.op_class_0::SimdFloatMultAcc            0      0.00%     76.91% # Class of committed instruction
system.switch_cpus.commit.op_class_0::SimdFloatSqrt            0      0.00%     76.91% # Class of committed instruction
system.switch_cpus.commit.op_class_0::SimdReduceAdd            0      0.00%     76.91% # Class of committed instruction
system.switch_cpus.commit.op_class_0::SimdReduceAlu            0      0.00%     76.91% # Class of committed instruction
system.switch_cpus.commit.op_class_0::SimdReduceCmp            0      0.00%     76.91% # Class of committed instruction
system.switch_cpus.commit.op_class_0::SimdFloatReduceAdd            0      0.00%     76.91% # Class of committed instruction
system.switch_cpus.commit.op_class_0::SimdFloatReduceCmp            0      0.00%     76.91% # Class of committed instruction
system.switch_cpus.commit.op_class_0::SimdAes            0      0.00%     76.91% # Class of committed instruction
system.switch_cpus.commit.op_class_0::SimdAesMix            0      0.00%     76.91% # Class of committed instruction
system.switch_cpus.commit.op_class_0::SimdSha1Hash            0      0.00%     76.91% # Class of committed instruction
system.switch_cpus.commit.op_class_0::SimdSha1Hash2            0      0.00%     76.91% # Class of committed instruction
system.switch_cpus.commit.op_class_0::SimdSha256Hash            0      0.00%     76.91% # Class of committed instruction
system.switch_cpus.commit.op_class_0::SimdSha256Hash2            0      0.00%     76.91% # Class of committed instruction
system.switch_cpus.commit.op_class_0::SimdShaSigma2            0      0.00%     76.91% # Class of committed instruction
system.switch_cpus.commit.op_class_0::SimdShaSigma3            0      0.00%     76.91% # Class of committed instruction
system.switch_cpus.commit.op_class_0::SimdPredAlu            0      0.00%     76.91% # Class of committed instruction
system.switch_cpus.commit.op_class_0::MemRead    149418900     14.47%     91.38% # Class of committed instruction
system.switch_cpus.commit.op_class_0::MemWrite     86926920      8.42%     99.80% # Class of committed instruction
system.switch_cpus.commit.op_class_0::FloatMemRead       261830      0.03%     99.82% # Class of committed instruction
system.switch_cpus.commit.op_class_0::FloatMemWrite      1823664      0.18%    100.00% # Class of committed instruction
system.switch_cpus.commit.op_class_0::IprAccess            0      0.00%    100.00% # Class of committed instruction
system.switch_cpus.commit.op_class_0::InstPrefetch            0      0.00%    100.00% # Class of committed instruction
system.switch_cpus.commit.op_class_0::total   1032584837                       # Class of committed instruction
system.switch_cpus.commit.refs              238431314                       # Number of memory references committed
system.switch_cpus.commit.swp_count                 0                       # Number of s/w prefetches committed
system.switch_cpus.commit.vec_insts                 0                       # Number of committed Vector instructions.
system.switch_cpus.committedInsts           500000000                       # Number of Instructions Simulated
system.switch_cpus.committedOps            1032584837                       # Number of Ops (including micro ops) Simulated
system.switch_cpus.cpi                       3.202421                       # CPI: Cycles Per Instruction
system.switch_cpus.cpi_total                 3.202421                       # CPI: Total CPI of All Threads
system.switch_cpus.decode.BlockedCycles     176989041                       # Number of cycles decode is blocked
system.switch_cpus.decode.DecodedInsts     1757743320                       # Number of instructions handled by decode
system.switch_cpus.decode.IdleCycles        433846379                       # Number of cycles decode is idle
system.switch_cpus.decode.RunCycles         438194776                       # Number of cycles decode is running
system.switch_cpus.decode.SquashCycles       25959695                       # Number of cycles decode is squashing
system.switch_cpus.decode.UnblockCycles      11071708                       # Number of cycles decode is unblocking
system.switch_cpus.dtb.rdAccesses           187652995                       # TLB accesses on read requests
system.switch_cpus.dtb.rdMisses               3216776                       # TLB misses on read requests
system.switch_cpus.dtb.wrAccesses           106149303                       # TLB accesses on write requests
system.switch_cpus.dtb.wrMisses                530163                       # TLB misses on write requests
system.switch_cpus.fetch.Branches           249527865                       # Number of branches that fetch encountered
system.switch_cpus.fetch.CacheLines         143272193                       # Number of cache lines fetched
system.switch_cpus.fetch.Cycles             486375635                       # Number of cycles fetch has run and was not squashing or blocked
system.switch_cpus.fetch.IcacheSquashes      11453157                       # Number of outstanding Icache misses that were squashed
system.switch_cpus.fetch.IcacheWaitRetryStallCycles    123999222                       # Number of stall cycles due to full MSHR
system.switch_cpus.fetch.Insts             1072759379                       # Number of instructions fetch has processed
system.switch_cpus.fetch.MiscStallCycles     36149513                       # Number of cycles fetch has spent waiting on interrupts, or bad addresses, or out of MSHRs
system.switch_cpus.fetch.PendingQuiesceStallCycles          205                       # Number of stall cycles due to pending quiesce instructions
system.switch_cpus.fetch.PendingTrapStallCycles       236362                       # Number of stall cycles due to pending traps
system.switch_cpus.fetch.SquashCycles        51919390                       # Number of cycles fetch has spent squashing
system.switch_cpus.fetch.TlbCycles                217                       # Number of cycles fetch has spent waiting for tlb
system.switch_cpus.fetch.branchRate          0.155837                       # Number of branch fetches per cycle
system.switch_cpus.fetch.icacheStallCycles    413340762                       # Number of cycles fetch is stalled on an Icache miss
system.switch_cpus.fetch.predictedBranches     67915902                       # Number of branches that fetch has predicted taken
system.switch_cpus.fetch.rate                0.669968                       # Number of inst fetches per cycle
system.switch_cpus.fetch.rateDist::samples   1086061611                       # Number of instructions fetched each cycle (Total)
system.switch_cpus.fetch.rateDist::mean      2.025318                       # Number of instructions fetched each cycle (Total)
system.switch_cpus.fetch.rateDist::stdev     3.185885                       # Number of instructions fetched each cycle (Total)
system.switch_cpus.fetch.rateDist::underflows            0      0.00%      0.00% # Number of instructions fetched each cycle (Total)
system.switch_cpus.fetch.rateDist::0        729761983     67.19%     67.19% # Number of instructions fetched each cycle (Total)
system.switch_cpus.fetch.rateDist::1         17152184      1.58%     68.77% # Number of instructions fetched each cycle (Total)
system.switch_cpus.fetch.rateDist::2         19015081      1.75%     70.52% # Number of instructions fetched each cycle (Total)
system.switch_cpus.fetch.rateDist::3         16407288      1.51%     72.03% # Number of instructions fetched each cycle (Total)
system.switch_cpus.fetch.rateDist::4         55349245      5.10%     77.13% # Number of instructions fetched each cycle (Total)
system.switch_cpus.fetch.rateDist::5         18835064      1.73%     78.86% # Number of instructions fetched each cycle (Total)
system.switch_cpus.fetch.rateDist::6         20294624      1.87%     80.73% # Number of instructions fetched each cycle (Total)
system.switch_cpus.fetch.rateDist::7         16092779      1.48%     82.22% # Number of instructions fetched each cycle (Total)
system.switch_cpus.fetch.rateDist::8        193153363     17.78%    100.00% # Number of instructions fetched each cycle (Total)
system.switch_cpus.fetch.rateDist::overflows            0      0.00%    100.00% # Number of instructions fetched each cycle (Total)
system.switch_cpus.fetch.rateDist::min_value            0                       # Number of instructions fetched each cycle (Total)
system.switch_cpus.fetch.rateDist::max_value            8                       # Number of instructions fetched each cycle (Total)
system.switch_cpus.fetch.rateDist::total   1086061611                       # Number of instructions fetched each cycle (Total)
system.switch_cpus.fp_regfile_reads           6822439                       # number of floating regfile reads
system.switch_cpus.fp_regfile_writes          2885163                       # number of floating regfile writes
system.switch_cpus.idleCycles               515148738                       # Total number of cycles that the CPU has spent unscheduled due to idling
system.switch_cpus.iew.branchMispredicts     30118731                       # Number of branch mispredicts detected at execute
system.switch_cpus.iew.exec_branches        131410361                       # Number of branches executed
system.switch_cpus.iew.exec_nop                     0                       # number of nop insts executed
system.switch_cpus.iew.exec_rate             0.824859                       # Inst execution rate
system.switch_cpus.iew.exec_refs            309257433                       # number of memory reference insts executed
system.switch_cpus.iew.exec_stores          106139024                       # Number of stores executed
system.switch_cpus.iew.exec_swp                     0                       # number of swp insts executed
system.switch_cpus.iew.iewBlockCycles       131457673                       # Number of cycles IEW is blocking
system.switch_cpus.iew.iewDispLoadInsts     220203482                       # Number of dispatched load instructions
system.switch_cpus.iew.iewDispNonSpecInsts         7888                       # Number of dispatched non-speculative instructions
system.switch_cpus.iew.iewDispSquashedInsts      1724919                       # Number of squashed instructions skipped by dispatch
system.switch_cpus.iew.iewDispStoreInsts    126551661                       # Number of dispatched store instructions
system.switch_cpus.iew.iewDispatchedInsts   1529926954                       # Number of instructions dispatched to IQ
system.switch_cpus.iew.iewExecLoadInsts     203118409                       # Number of load instructions executed
system.switch_cpus.iew.iewExecSquashedInsts     49244738                       # Number of squashed instructions skipped in execute
system.switch_cpus.iew.iewExecutedInsts    1320773127                       # Number of executed instructions
system.switch_cpus.iew.iewIQFullEvents         511967                       # Number of times the IQ has become full, causing a stall
system.switch_cpus.iew.iewIdleCycles                0                       # Number of cycles IEW is idle
system.switch_cpus.iew.iewLSQFullEvents       3574919                       # Number of times the LSQ has become full, causing a stall
system.switch_cpus.iew.iewSquashCycles       25959695                       # Number of cycles IEW is squashing
system.switch_cpus.iew.iewUnblockCycles       4522018                       # Number of cycles IEW is unblocking
system.switch_cpus.iew.lsq.thread0.blockedLoads            0                       # Number of blocked loads due to partial load-store forwarding
system.switch_cpus.iew.lsq.thread0.cacheBlocked      2864929                       # Number of times an access to memory failed due to the cache being blocked
system.switch_cpus.iew.lsq.thread0.forwLoads     11231932                       # Number of loads that had data forwarded from stores
system.switch_cpus.iew.lsq.thread0.ignoredResponses       229148                       # Number of memory responses ignored because the instruction is squashed
system.switch_cpus.iew.lsq.thread0.invAddrLoads            0                       # Number of loads ignored due to an invalid address
system.switch_cpus.iew.lsq.thread0.invAddrSwpfs            0                       # Number of software prefetches ignored due to an invalid address
system.switch_cpus.iew.lsq.thread0.memOrderViolation       121043                       # Number of memory ordering violations
system.switch_cpus.iew.lsq.thread0.rescheduledLoads       393628                       # Number of loads that were rescheduled
system.switch_cpus.iew.lsq.thread0.squashedLoads     70522748                       # Number of loads squashed
system.switch_cpus.iew.lsq.thread0.squashedStores     37801076                       # Number of stores squashed
system.switch_cpus.iew.memOrderViolationEvents       121043                       # Number of memory order violations
system.switch_cpus.iew.predictedNotTakenIncorrect     27627762                       # Number of branches that were predicted not taken incorrectly
system.switch_cpus.iew.predictedTakenIncorrect      2490969                       # Number of branches that were predicted taken incorrectly
system.switch_cpus.iew.wb_consumers        1371918568                       # num instructions consuming a value
system.switch_cpus.iew.wb_count            1285663099                       # cumulative count of insts written-back
system.switch_cpus.iew.wb_fanout             0.638665                       # average fanout of values written-back
system.switch_cpus.iew.wb_producers         876197005                       # num instructions producing a value
system.switch_cpus.iew.wb_rate               0.802932                       # insts written-back per cycle
system.switch_cpus.iew.wb_sent             1293812968                       # cumulative count of insts sent to commit
system.switch_cpus.int_regfile_reads       2009481448                       # number of integer regfile reads
system.switch_cpus.int_regfile_writes      1047203402                       # number of integer regfile writes
system.switch_cpus.ipc                       0.312264                       # IPC: Instructions Per Cycle
system.switch_cpus.ipc_total                 0.312264                       # IPC: Total IPC of All Threads
system.switch_cpus.iq.FU_type_0::No_OpClass      9567727      0.70%      0.70% # Type of FU issued
system.switch_cpus.iq.FU_type_0::IntAlu    1032003642     75.33%     76.03% # Type of FU issued
system.switch_cpus.iq.FU_type_0::IntMult      1177762      0.09%     76.11% # Type of FU issued
system.switch_cpus.iq.FU_type_0::IntDiv       2200537      0.16%     76.27% # Type of FU issued
system.switch_cpus.iq.FU_type_0::FloatAdd       134680      0.01%     76.28% # Type of FU issued
system.switch_cpus.iq.FU_type_0::FloatCmp            0      0.00%     76.28% # Type of FU issued
system.switch_cpus.iq.FU_type_0::FloatCvt            0      0.00%     76.28% # Type of FU issued
system.switch_cpus.iq.FU_type_0::FloatMult            0      0.00%     76.28% # Type of FU issued
system.switch_cpus.iq.FU_type_0::FloatMultAcc            0      0.00%     76.28% # Type of FU issued
system.switch_cpus.iq.FU_type_0::FloatDiv            0      0.00%     76.28% # Type of FU issued
system.switch_cpus.iq.FU_type_0::FloatMisc            0      0.00%     76.28% # Type of FU issued
system.switch_cpus.iq.FU_type_0::FloatSqrt            0      0.00%     76.28% # Type of FU issued
system.switch_cpus.iq.FU_type_0::SimdAdd         8282      0.00%     76.28% # Type of FU issued
system.switch_cpus.iq.FU_type_0::SimdAddAcc            0      0.00%     76.28% # Type of FU issued
system.switch_cpus.iq.FU_type_0::SimdAlu       305309      0.02%     76.31% # Type of FU issued
system.switch_cpus.iq.FU_type_0::SimdCmp            0      0.00%     76.31% # Type of FU issued
system.switch_cpus.iq.FU_type_0::SimdCvt       116802      0.01%     76.31% # Type of FU issued
system.switch_cpus.iq.FU_type_0::SimdMisc      1004430      0.07%     76.39% # Type of FU issued
system.switch_cpus.iq.FU_type_0::SimdMult            0      0.00%     76.39% # Type of FU issued
system.switch_cpus.iq.FU_type_0::SimdMultAcc            0      0.00%     76.39% # Type of FU issued
system.switch_cpus.iq.FU_type_0::SimdShift        11646      0.00%     76.39% # Type of FU issued
system.switch_cpus.iq.FU_type_0::SimdShiftAcc            0      0.00%     76.39% # Type of FU issued
system.switch_cpus.iq.FU_type_0::SimdDiv            0      0.00%     76.39% # Type of FU issued
system.switch_cpus.iq.FU_type_0::SimdSqrt            0      0.00%     76.39% # Type of FU issued
system.switch_cpus.iq.FU_type_0::SimdFloatAdd           11      0.00%     76.39% # Type of FU issued
system.switch_cpus.iq.FU_type_0::SimdFloatAlu            0      0.00%     76.39% # Type of FU issued
system.switch_cpus.iq.FU_type_0::SimdFloatCmp            0      0.00%     76.39% # Type of FU issued
system.switch_cpus.iq.FU_type_0::SimdFloatCvt            0      0.00%     76.39% # Type of FU issued
system.switch_cpus.iq.FU_type_0::SimdFloatDiv            0      0.00%     76.39% # Type of FU issued
system.switch_cpus.iq.FU_type_0::SimdFloatMisc            0      0.00%     76.39% # Type of FU issued
system.switch_cpus.iq.FU_type_0::SimdFloatMult            0      0.00%     76.39% # Type of FU issued
system.switch_cpus.iq.FU_type_0::SimdFloatMultAcc            0      0.00%     76.39% # Type of FU issued
system.switch_cpus.iq.FU_type_0::SimdFloatSqrt            0      0.00%     76.39% # Type of FU issued
system.switch_cpus.iq.FU_type_0::SimdReduceAdd            0      0.00%     76.39% # Type of FU issued
system.switch_cpus.iq.FU_type_0::SimdReduceAlu            0      0.00%     76.39% # Type of FU issued
system.switch_cpus.iq.FU_type_0::SimdReduceCmp            0      0.00%     76.39% # Type of FU issued
system.switch_cpus.iq.FU_type_0::SimdFloatReduceAdd            0      0.00%     76.39% # Type of FU issued
system.switch_cpus.iq.FU_type_0::SimdFloatReduceCmp            0      0.00%     76.39% # Type of FU issued
system.switch_cpus.iq.FU_type_0::SimdAes            0      0.00%     76.39% # Type of FU issued
system.switch_cpus.iq.FU_type_0::SimdAesMix            0      0.00%     76.39% # Type of FU issued
system.switch_cpus.iq.FU_type_0::SimdSha1Hash            0      0.00%     76.39% # Type of FU issued
system.switch_cpus.iq.FU_type_0::SimdSha1Hash2            0      0.00%     76.39% # Type of FU issued
system.switch_cpus.iq.FU_type_0::SimdSha256Hash            0      0.00%     76.39% # Type of FU issued
system.switch_cpus.iq.FU_type_0::SimdSha256Hash2            0      0.00%     76.39% # Type of FU issued
system.switch_cpus.iq.FU_type_0::SimdShaSigma2            0      0.00%     76.39% # Type of FU issued
system.switch_cpus.iq.FU_type_0::SimdShaSigma3            0      0.00%     76.39% # Type of FU issued
system.switch_cpus.iq.FU_type_0::SimdPredAlu            0      0.00%     76.39% # Type of FU issued
system.switch_cpus.iq.FU_type_0::MemRead    210335759     15.35%     91.74% # Type of FU issued
system.switch_cpus.iq.FU_type_0::MemWrite    106818458      7.80%     99.54% # Type of FU issued
system.switch_cpus.iq.FU_type_0::FloatMemRead      2424695      0.18%     99.71% # Type of FU issued
system.switch_cpus.iq.FU_type_0::FloatMemWrite      3908127      0.29%    100.00% # Type of FU issued
system.switch_cpus.iq.FU_type_0::IprAccess            0      0.00%    100.00% # Type of FU issued
system.switch_cpus.iq.FU_type_0::InstPrefetch            0      0.00%    100.00% # Type of FU issued
system.switch_cpus.iq.FU_type_0::total     1370017867                       # Type of FU issued
system.switch_cpus.iq.fp_alu_accesses         8042585                       # Number of floating point alu accesses
system.switch_cpus.iq.fp_inst_queue_reads     16401029                       # Number of floating instruction queue reads
system.switch_cpus.iq.fp_inst_queue_wakeup_accesses      6722353                       # Number of floating instruction queue wakeup accesses
system.switch_cpus.iq.fp_inst_queue_writes     12705117                       # Number of floating instruction queue writes
system.switch_cpus.iq.fu_busy_cnt                   0                       # FU busy when requested
system.switch_cpus.iq.fu_busy_rate                  0                       # FU busy rate (busy events/executed inst)
system.switch_cpus.iq.fu_full::No_OpClass            0                       # attempts to use FU when none available
system.switch_cpus.iq.fu_full::IntAlu               0                       # attempts to use FU when none available
system.switch_cpus.iq.fu_full::IntMult              0                       # attempts to use FU when none available
system.switch_cpus.iq.fu_full::IntDiv               0                       # attempts to use FU when none available
system.switch_cpus.iq.fu_full::FloatAdd             0                       # attempts to use FU when none available
system.switch_cpus.iq.fu_full::FloatCmp             0                       # attempts to use FU when none available
system.switch_cpus.iq.fu_full::FloatCvt             0                       # attempts to use FU when none available
system.switch_cpus.iq.fu_full::FloatMult            0                       # attempts to use FU when none available
system.switch_cpus.iq.fu_full::FloatMultAcc            0                       # attempts to use FU when none available
system.switch_cpus.iq.fu_full::FloatDiv             0                       # attempts to use FU when none available
system.switch_cpus.iq.fu_full::FloatMisc            0                       # attempts to use FU when none available
system.switch_cpus.iq.fu_full::FloatSqrt            0                       # attempts to use FU when none available
system.switch_cpus.iq.fu_full::SimdAdd              0                       # attempts to use FU when none available
system.switch_cpus.iq.fu_full::SimdAddAcc            0                       # attempts to use FU when none available
system.switch_cpus.iq.fu_full::SimdAlu              0                       # attempts to use FU when none available
system.switch_cpus.iq.fu_full::SimdCmp              0                       # attempts to use FU when none available
system.switch_cpus.iq.fu_full::SimdCvt              0                       # attempts to use FU when none available
system.switch_cpus.iq.fu_full::SimdMisc             0                       # attempts to use FU when none available
system.switch_cpus.iq.fu_full::SimdMult             0                       # attempts to use FU when none available
system.switch_cpus.iq.fu_full::SimdMultAcc            0                       # attempts to use FU when none available
system.switch_cpus.iq.fu_full::SimdShift            0                       # attempts to use FU when none available
system.switch_cpus.iq.fu_full::SimdShiftAcc            0                       # attempts to use FU when none available
system.switch_cpus.iq.fu_full::SimdDiv              0                       # attempts to use FU when none available
system.switch_cpus.iq.fu_full::SimdSqrt             0                       # attempts to use FU when none available
system.switch_cpus.iq.fu_full::SimdFloatAdd            0                       # attempts to use FU when none available
system.switch_cpus.iq.fu_full::SimdFloatAlu            0                       # attempts to use FU when none available
system.switch_cpus.iq.fu_full::SimdFloatCmp            0                       # attempts to use FU when none available
system.switch_cpus.iq.fu_full::SimdFloatCvt            0                       # attempts to use FU when none available
system.switch_cpus.iq.fu_full::SimdFloatDiv            0                       # attempts to use FU when none available
system.switch_cpus.iq.fu_full::SimdFloatMisc            0                       # attempts to use FU when none available
system.switch_cpus.iq.fu_full::SimdFloatMult            0                       # attempts to use FU when none available
system.switch_cpus.iq.fu_full::SimdFloatMultAcc            0                       # attempts to use FU when none available
system.switch_cpus.iq.fu_full::SimdFloatSqrt            0                       # attempts to use FU when none available
system.switch_cpus.iq.fu_full::SimdReduceAdd            0                       # attempts to use FU when none available
system.switch_cpus.iq.fu_full::SimdReduceAlu            0                       # attempts to use FU when none available
system.switch_cpus.iq.fu_full::SimdReduceCmp            0                       # attempts to use FU when none available
system.switch_cpus.iq.fu_full::SimdFloatReduceAdd            0                       # attempts to use FU when none available
system.switch_cpus.iq.fu_full::SimdFloatReduceCmp            0                       # attempts to use FU when none available
system.switch_cpus.iq.fu_full::SimdAes              0                       # attempts to use FU when none available
system.switch_cpus.iq.fu_full::SimdAesMix            0                       # attempts to use FU when none available
system.switch_cpus.iq.fu_full::SimdSha1Hash            0                       # attempts to use FU when none available
system.switch_cpus.iq.fu_full::SimdSha1Hash2            0                       # attempts to use FU when none available
system.switch_cpus.iq.fu_full::SimdSha256Hash            0                       # attempts to use FU when none available
system.switch_cpus.iq.fu_full::SimdSha256Hash2            0                       # attempts to use FU when none available
system.switch_cpus.iq.fu_full::SimdShaSigma2            0                       # attempts to use FU when none available
system.switch_cpus.iq.fu_full::SimdShaSigma3            0                       # attempts to use FU when none available
system.switch_cpus.iq.fu_full::SimdPredAlu            0                       # attempts to use FU when none available
system.switch_cpus.iq.fu_full::MemRead              0                       # attempts to use FU when none available
system.switch_cpus.iq.fu_full::MemWrite             0                       # attempts to use FU when none available
system.switch_cpus.iq.fu_full::FloatMemRead            0                       # attempts to use FU when none available
system.switch_cpus.iq.fu_full::FloatMemWrite            0                       # attempts to use FU when none available
system.switch_cpus.iq.fu_full::IprAccess            0                       # attempts to use FU when none available
system.switch_cpus.iq.fu_full::InstPrefetch            0                       # attempts to use FU when none available
system.switch_cpus.iq.int_alu_accesses     1352407555                       # Number of integer alu accesses
system.switch_cpus.iq.int_inst_queue_reads   3840078507                       # Number of integer instruction queue reads
system.switch_cpus.iq.int_inst_queue_wakeup_accesses   1278940746                       # Number of integer instruction queue wakeup accesses
system.switch_cpus.iq.int_inst_queue_writes   2014678642                       # Number of integer instruction queue writes
system.switch_cpus.iq.iqInstsAdded         1529899180                       # Number of instructions added to the IQ (excludes non-spec)
system.switch_cpus.iq.iqInstsIssued        1370017867                       # Number of instructions issued
system.switch_cpus.iq.iqNonSpecInstsAdded        27774                       # Number of non-speculative instructions added to the IQ
system.switch_cpus.iq.iqSquashedInstsExamined    497342087                       # Number of squashed instructions iterated over during squash; mainly for profiling
system.switch_cpus.iq.iqSquashedInstsIssued     30382193                       # Number of squashed instructions issued
system.switch_cpus.iq.iqSquashedNonSpecRemoved        18152                       # Number of squashed non-spec instructions that were removed
system.switch_cpus.iq.iqSquashedOperandsExamined    681655647                       # Number of squashed operands that are examined and possibly removed from graph
system.switch_cpus.iq.issued_per_cycle::samples   1086061611                       # Number of insts issued each cycle
system.switch_cpus.iq.issued_per_cycle::mean     1.261455                       # Number of insts issued each cycle
system.switch_cpus.iq.issued_per_cycle::stdev     1.657899                       # Number of insts issued each cycle
system.switch_cpus.iq.issued_per_cycle::underflows            0      0.00%      0.00% # Number of insts issued each cycle
system.switch_cpus.iq.issued_per_cycle::0    639897300     58.92%     58.92% # Number of insts issued each cycle
system.switch_cpus.iq.issued_per_cycle::1     52570403      4.84%     63.76% # Number of insts issued each cycle
system.switch_cpus.iq.issued_per_cycle::2     80909460      7.45%     71.21% # Number of insts issued each cycle
system.switch_cpus.iq.issued_per_cycle::3     95109248      8.76%     79.97% # Number of insts issued each cycle
system.switch_cpus.iq.issued_per_cycle::4    217575200     20.03%    100.00% # Number of insts issued each cycle
system.switch_cpus.iq.issued_per_cycle::overflows            0      0.00%    100.00% # Number of insts issued each cycle
system.switch_cpus.iq.issued_per_cycle::min_value            0                       # Number of insts issued each cycle
system.switch_cpus.iq.issued_per_cycle::max_value            4                       # Number of insts issued each cycle
system.switch_cpus.iq.issued_per_cycle::total   1086061611                       # Number of insts issued each cycle
system.switch_cpus.iq.rate                   0.855614                       # Inst issue rate
system.switch_cpus.iq.vec_alu_accesses              0                       # Number of vector alu accesses
system.switch_cpus.iq.vec_inst_queue_reads            0                       # Number of vector instruction queue reads
system.switch_cpus.iq.vec_inst_queue_wakeup_accesses            0                       # Number of vector instruction queue wakeup accesses
system.switch_cpus.iq.vec_inst_queue_writes            0                       # Number of vector instruction queue writes
system.switch_cpus.itb.rdAccesses                   0                       # TLB accesses on read requests
system.switch_cpus.itb.rdMisses                     0                       # TLB misses on read requests
system.switch_cpus.itb.wrAccesses           143311143                       # TLB accesses on write requests
system.switch_cpus.itb.wrMisses               1372728                       # TLB misses on write requests
system.switch_cpus.memDep0.conflictingLoads      5671344                       # Number of conflicting loads.
system.switch_cpus.memDep0.conflictingStores      5947404                       # Number of conflicting stores.
system.switch_cpus.memDep0.insertedLoads    220203482                       # Number of loads inserted to the mem dependence unit.
system.switch_cpus.memDep0.insertedStores    126551661                       # Number of stores inserted to the mem dependence unit.
system.switch_cpus.misc_regfile_reads       591165022                       # number of misc regfile reads
system.switch_cpus.numCycles               1601210349                       # number of cpu cycles simulated
system.switch_cpus.numWorkItemsCompleted            0                       # number of work items this cpu completed
system.switch_cpus.numWorkItemsStarted              0                       # number of work items this cpu started
system.switch_cpus.rename.BlockCycles       147908514                       # Number of cycles rename is blocking
system.switch_cpus.rename.CommittedMaps    1087006426                       # Number of HB maps that are committed
system.switch_cpus.rename.FullRegisterEvents          184                       # Number of times there has been no free registers
system.switch_cpus.rename.IQFullEvents        5262458                       # Number of times rename has blocked due to IQ full
system.switch_cpus.rename.IdleCycles        453871720                       # Number of cycles rename is idle
system.switch_cpus.rename.LQFullEvents        1327434                       # Number of times rename has blocked due to LQ full
system.switch_cpus.rename.ROBFullEvents        436483                       # Number of times rename has blocked due to ROB full
system.switch_cpus.rename.RenameLookups    4126402381                       # Number of register rename lookups that rename has made
system.switch_cpus.rename.RenamedInsts     1683199303                       # Number of instructions processed by rename
system.switch_cpus.rename.RenamedOperands   1767891007                       # Number of destination operands rename has renamed
system.switch_cpus.rename.RunCycles         427877182                       # Number of cycles rename is running
system.switch_cpus.rename.SQFullEvents       23050629                       # Number of times rename has blocked due to SQ full
system.switch_cpus.rename.SquashCycles       25959695                       # Number of cycles rename is squashing
system.switch_cpus.rename.UnblockCycles      30409899                       # Number of cycles rename is unblocking
system.switch_cpus.rename.UndoneMaps        680884540                       # Number of HB maps that are undone due to squashing
system.switch_cpus.rename.fp_rename_lookups      8135035                       # Number of floating rename lookups
system.switch_cpus.rename.int_rename_lookups   2618775551                       # Number of integer rename lookups
system.switch_cpus.rename.serializeStallCycles        34590                       # count of cycles rename stalled for serializing inst
system.switch_cpus.rename.serializingInsts          315                       # count of serializing insts renamed
system.switch_cpus.rename.skidInsts          14367594                       # count of insts added to the skid buffer
system.switch_cpus.rename.tempSerializingInsts          313                       # count of temporary serializing insts renamed
system.switch_cpus.rob.rob_reads           2495925152                       # The number of ROB reads
system.switch_cpus.rob.rob_writes          3135011016                       # The number of ROB writes
system.switch_cpus.timesIdled                13042506                       # Number of times that the entire CPU went into an idle state and unscheduled itself
system.tol2bus.snoop_filter.hit_multi_requests        57312                       # Number of requests hitting in the snoop filter with multiple (>1) holders of the requested data.
system.tol2bus.snoop_filter.hit_multi_snoops        12387                       # Number of snoops hitting in the snoop filter with multiple (>1) holders of the requested data.
system.tol2bus.snoop_filter.hit_single_requests     23831465                       # Number of requests hitting in the snoop filter with a single holder of the requested data.
system.tol2bus.snoop_filter.hit_single_snoops      1025294                       # Number of snoops hitting in the snoop filter with a single holder of the requested data.
system.tol2bus.snoop_filter.tot_requests     47398170                       # Total number of requests made to the snoop filter.
system.tol2bus.snoop_filter.tot_snoops        1037681                       # Total number of snoops made to the snoop filter.
system.membus.pwrStateResidencyTicks::UNDEFINED 1983463718500                       # Cumulative time (in ticks) in various power states
system.membus.trans_dist::ReadResp            3510404                       # Transaction distribution
system.membus.trans_dist::WritebackDirty       633153                       # Transaction distribution
system.membus.trans_dist::CleanEvict          3337096                       # Transaction distribution
system.membus.trans_dist::UpgradeReq             1087                       # Transaction distribution
system.membus.trans_dist::ReadExReq            460217                       # Transaction distribution
system.membus.trans_dist::ReadExResp           460217                       # Transaction distribution
system.membus.trans_dist::ReadSharedReq       3510404                       # Transaction distribution
system.membus.pkt_count_system.l2.mem_side::system.mem_ctrls.port     11912578                       # Packet count per connected master and slave (bytes)
system.membus.pkt_count_system.l2.mem_side::total     11912578                       # Packet count per connected master and slave (bytes)
system.membus.pkt_count::total               11912578                       # Packet count per connected master and slave (bytes)
system.membus.pkt_size_system.l2.mem_side::system.mem_ctrls.port    294641536                       # Cumulative packet size per connected master and slave (bytes)
system.membus.pkt_size_system.l2.mem_side::total    294641536                       # Cumulative packet size per connected master and slave (bytes)
system.membus.pkt_size::total               294641536                       # Cumulative packet size per connected master and slave (bytes)
system.membus.snoops                                0                       # Total snoops (count)
system.membus.snoopTraffic                          0                       # Total snoop traffic (bytes)
system.membus.snoop_fanout::samples           3971708                       # Request fanout histogram
system.membus.snoop_fanout::mean                    0                       # Request fanout histogram
system.membus.snoop_fanout::stdev                   0                       # Request fanout histogram
system.membus.snoop_fanout::underflows              0      0.00%      0.00% # Request fanout histogram
system.membus.snoop_fanout::0                 3971708    100.00%    100.00% # Request fanout histogram
system.membus.snoop_fanout::1                       0      0.00%    100.00% # Request fanout histogram
system.membus.snoop_fanout::overflows               0      0.00%    100.00% # Request fanout histogram
system.membus.snoop_fanout::min_value               0                       # Request fanout histogram
system.membus.snoop_fanout::max_value               0                       # Request fanout histogram
system.membus.snoop_fanout::total             3971708                       # Request fanout histogram
system.membus.reqLayer2.occupancy         11825678705                       # Layer occupancy (ticks)
system.membus.reqLayer2.utilization               1.5                       # Layer utilization (%)
system.membus.respLayer1.occupancy        21514918479                       # Layer occupancy (ticks)
system.membus.respLayer1.utilization              2.7                       # Layer utilization (%)
system.switch_cpus.pwrStateResidencyTicks::OFF 1983463718500                       # Cumulative time (in ticks) in various power states
system.switch_cpus.dtb.walker.pwrStateResidencyTicks::UNDEFINED 1983463718500                       # Cumulative time (in ticks) in various power states
system.switch_cpus.itb.walker.pwrStateResidencyTicks::UNDEFINED 1983463718500                       # Cumulative time (in ticks) in various power states
system.tol2bus.pwrStateResidencyTicks::UNDEFINED 1983463718500                       # Cumulative time (in ticks) in various power states
system.tol2bus.trans_dist::ReadResp          21682602                       # Transaction distribution
system.tol2bus.trans_dist::WritebackDirty      1956620                       # Transaction distribution
system.tol2bus.trans_dist::WritebackClean     19308384                       # Transaction distribution
system.tol2bus.trans_dist::CleanEvict         5820346                       # Transaction distribution
system.tol2bus.trans_dist::UpgradeReq            4576                       # Transaction distribution
system.tol2bus.trans_dist::UpgradeResp           4576                       # Transaction distribution
system.tol2bus.trans_dist::ReadExReq           839612                       # Transaction distribution
system.tol2bus.trans_dist::ReadExResp          839612                       # Transaction distribution
system.tol2bus.trans_dist::ReadCleanReq      19312555                       # Transaction distribution
system.tol2bus.trans_dist::ReadSharedReq      2370048                       # Transaction distribution
system.tol2bus.pkt_count_system.cpu.icache.mem_side::system.l2.cpu_side     57928031                       # Packet count per connected master and slave (bytes)
system.tol2bus.pkt_count_system.cpu.dcache.mem_side::system.l2.cpu_side      9638132                       # Packet count per connected master and slave (bytes)
system.tol2bus.pkt_count::total              67566163                       # Packet count per connected master and slave (bytes)
system.tol2bus.pkt_size_system.cpu.icache.mem_side::system.l2.cpu_side   2471390464                       # Cumulative packet size per connected master and slave (bytes)
system.tol2bus.pkt_size_system.cpu.dcache.mem_side::system.l2.cpu_side    290120128                       # Cumulative packet size per connected master and slave (bytes)
system.tol2bus.pkt_size::total             2761510592                       # Cumulative packet size per connected master and slave (bytes)
system.tol2bus.snoops                         4572768                       # Total snoops (count)
system.tol2bus.snoopTraffic                  40871360                       # Total snoop traffic (bytes)
system.tol2bus.snoop_fanout::samples         28131049                       # Request fanout histogram
system.tol2bus.snoop_fanout::mean            0.039240                       # Request fanout histogram
system.tol2bus.snoop_fanout::stdev           0.196421                       # Request fanout histogram
system.tol2bus.snoop_fanout::underflows             0      0.00%      0.00% # Request fanout histogram
system.tol2bus.snoop_fanout::0               27039565     96.12%     96.12% # Request fanout histogram
system.tol2bus.snoop_fanout::1                1079097      3.84%     99.96% # Request fanout histogram
system.tol2bus.snoop_fanout::2                  12387      0.04%    100.00% # Request fanout histogram
system.tol2bus.snoop_fanout::3                      0      0.00%    100.00% # Request fanout histogram
system.tol2bus.snoop_fanout::4                      0      0.00%    100.00% # Request fanout histogram
system.tol2bus.snoop_fanout::overflows              0      0.00%    100.00% # Request fanout histogram
system.tol2bus.snoop_fanout::min_value              0                       # Request fanout histogram
system.tol2bus.snoop_fanout::max_value              2                       # Request fanout histogram
system.tol2bus.snoop_fanout::total           28131049                       # Request fanout histogram
system.tol2bus.reqLayer0.occupancy        45469746576                       # Layer occupancy (ticks)
system.tol2bus.reqLayer0.utilization              5.7                       # Layer utilization (%)
system.tol2bus.respLayer1.occupancy        4821980075                       # Layer occupancy (ticks)
system.tol2bus.respLayer1.utilization             0.6                       # Layer utilization (%)
system.tol2bus.respLayer0.occupancy       28976800824                       # Layer occupancy (ticks)
system.tol2bus.respLayer0.utilization             3.6                       # Layer utilization (%)
system.voltage_domain.voltage                       1                       # Voltage in Volts
system.clk_domain.clock                          1000                       # Clock period in ticks
system.l2.pwrStateResidencyTicks::UNDEFINED 1983463718500                       # Cumulative time (in ticks) in various power states
system.l2.demand_hits::.switch_cpus.inst     17021074                       # number of demand (read+write) hits
system.l2.demand_hits::.switch_cpus.data      1525038                       # number of demand (read+write) hits
system.l2.demand_hits::total                 18546112                       # number of demand (read+write) hits
system.l2.overall_hits::.switch_cpus.inst     17021074                       # number of overall hits
system.l2.overall_hits::.switch_cpus.data      1525038                       # number of overall hits
system.l2.overall_hits::total                18546112                       # number of overall hits
system.l2.demand_misses::.switch_cpus.inst      2286019                       # number of demand (read+write) misses
system.l2.demand_misses::.switch_cpus.data      1684622                       # number of demand (read+write) misses
system.l2.demand_misses::total                3970641                       # number of demand (read+write) misses
system.l2.overall_misses::.switch_cpus.inst      2286019                       # number of overall misses
system.l2.overall_misses::.switch_cpus.data      1684622                       # number of overall misses
system.l2.overall_misses::total               3970641                       # number of overall misses
system.l2.demand_miss_latency::.switch_cpus.inst 184354127197                       # number of demand (read+write) miss cycles
system.l2.demand_miss_latency::.switch_cpus.data 145699080518                       # number of demand (read+write) miss cycles
system.l2.demand_miss_latency::total     330053207715                       # number of demand (read+write) miss cycles
system.l2.overall_miss_latency::.switch_cpus.inst 184354127197                       # number of overall miss cycles
system.l2.overall_miss_latency::.switch_cpus.data 145699080518                       # number of overall miss cycles
system.l2.overall_miss_latency::total    330053207715                       # number of overall miss cycles
system.l2.demand_accesses::.switch_cpus.inst     19307093                       # number of demand (read+write) accesses
system.l2.demand_accesses::.switch_cpus.data      3209660                       # number of demand (read+write) accesses
system.l2.demand_accesses::total             22516753                       # number of demand (read+write) accesses
system.l2.overall_accesses::.switch_cpus.inst     19307093                       # number of overall (read+write) accesses
system.l2.overall_accesses::.switch_cpus.data      3209660                       # number of overall (read+write) accesses
system.l2.overall_accesses::total            22516753                       # number of overall (read+write) accesses
system.l2.demand_miss_rate::.switch_cpus.inst     0.118403                       # miss rate for demand accesses
system.l2.demand_miss_rate::.switch_cpus.data     0.524860                       # miss rate for demand accesses
system.l2.demand_miss_rate::total            0.176342                       # miss rate for demand accesses
system.l2.overall_miss_rate::.switch_cpus.inst     0.118403                       # miss rate for overall accesses
system.l2.overall_miss_rate::.switch_cpus.data     0.524860                       # miss rate for overall accesses
system.l2.overall_miss_rate::total           0.176342                       # miss rate for overall accesses
system.l2.demand_avg_miss_latency::.switch_cpus.inst 80644.179771                       # average overall miss latency
system.l2.demand_avg_miss_latency::.switch_cpus.data 86487.699032                       # average overall miss latency
system.l2.demand_avg_miss_latency::total 83123.406955                       # average overall miss latency
system.l2.overall_avg_miss_latency::.switch_cpus.inst 80644.179771                       # average overall miss latency
system.l2.overall_avg_miss_latency::.switch_cpus.data 86487.699032                       # average overall miss latency
system.l2.overall_avg_miss_latency::total 83123.406955                       # average overall miss latency
system.l2.blocked_cycles::no_mshrs          580038284                       # number of cycles access was blocked
system.l2.blocked_cycles::no_targets                0                       # number of cycles access was blocked
system.l2.blocked::no_mshrs                   3971709                       # number of cycles access was blocked
system.l2.blocked::no_targets                       0                       # number of cycles access was blocked
system.l2.avg_blocked_cycles::no_mshrs     146.042493                       # average number of cycles each access was blocked
system.l2.avg_blocked_cycles::no_targets          nan                       # average number of cycles each access was blocked
system.l2.writebacks::.writebacks              633153                       # number of writebacks
system.l2.writebacks::total                    633153                       # number of writebacks
system.l2.demand_mshr_misses::.switch_cpus.inst      2286019                       # number of demand (read+write) MSHR misses
system.l2.demand_mshr_misses::.switch_cpus.data      1684622                       # number of demand (read+write) MSHR misses
system.l2.demand_mshr_misses::total           3970641                       # number of demand (read+write) MSHR misses
system.l2.overall_mshr_misses::.switch_cpus.inst      2286019                       # number of overall MSHR misses
system.l2.overall_mshr_misses::.switch_cpus.data      1684622                       # number of overall MSHR misses
system.l2.overall_mshr_misses::total          3970641                       # number of overall MSHR misses
system.l2.demand_mshr_miss_latency::.switch_cpus.inst 161493947197                       # number of demand (read+write) MSHR miss cycles
system.l2.demand_mshr_miss_latency::.switch_cpus.data 128852859021                       # number of demand (read+write) MSHR miss cycles
system.l2.demand_mshr_miss_latency::total 290346806218                       # number of demand (read+write) MSHR miss cycles
system.l2.overall_mshr_miss_latency::.switch_cpus.inst 161493947197                       # number of overall MSHR miss cycles
system.l2.overall_mshr_miss_latency::.switch_cpus.data 128852859021                       # number of overall MSHR miss cycles
system.l2.overall_mshr_miss_latency::total 290346806218                       # number of overall MSHR miss cycles
system.l2.demand_mshr_miss_rate::.switch_cpus.inst     0.118403                       # mshr miss rate for demand accesses
system.l2.demand_mshr_miss_rate::.switch_cpus.data     0.524860                       # mshr miss rate for demand accesses
system.l2.demand_mshr_miss_rate::total       0.176342                       # mshr miss rate for demand accesses
system.l2.overall_mshr_miss_rate::.switch_cpus.inst     0.118403                       # mshr miss rate for overall accesses
system.l2.overall_mshr_miss_rate::.switch_cpus.data     0.524860                       # mshr miss rate for overall accesses
system.l2.overall_mshr_miss_rate::total      0.176342                       # mshr miss rate for overall accesses
system.l2.demand_avg_mshr_miss_latency::.switch_cpus.inst 70644.184146                       # average overall mshr miss latency
system.l2.demand_avg_mshr_miss_latency::.switch_cpus.data 76487.698143                       # average overall mshr miss latency
system.l2.demand_avg_mshr_miss_latency::total 73123.409096                       # average overall mshr miss latency
system.l2.overall_avg_mshr_miss_latency::.switch_cpus.inst 70644.184146                       # average overall mshr miss latency
system.l2.overall_avg_mshr_miss_latency::.switch_cpus.data 76487.698143                       # average overall mshr miss latency
system.l2.overall_avg_mshr_miss_latency::total 73123.409096                       # average overall mshr miss latency
system.l2.replacements                        4567306                       # number of replacements
system.l2.WritebackDirty_hits::.writebacks      1323467                       # number of WritebackDirty hits
system.l2.WritebackDirty_hits::total          1323467                       # number of WritebackDirty hits
system.l2.WritebackDirty_accesses::.writebacks      1323467                       # number of WritebackDirty accesses(hits+misses)
system.l2.WritebackDirty_accesses::total      1323467                       # number of WritebackDirty accesses(hits+misses)
system.l2.WritebackClean_hits::.writebacks     19299011                       # number of WritebackClean hits
system.l2.WritebackClean_hits::total         19299011                       # number of WritebackClean hits
system.l2.WritebackClean_accesses::.writebacks     19299011                       # number of WritebackClean accesses(hits+misses)
system.l2.WritebackClean_accesses::total     19299011                       # number of WritebackClean accesses(hits+misses)
system.l2.CleanEvict_mshr_misses::.writebacks       431026                       # number of CleanEvict MSHR misses
system.l2.CleanEvict_mshr_misses::total        431026                       # number of CleanEvict MSHR misses
system.l2.CleanEvict_mshr_miss_rate::.writebacks          inf                       # mshr miss rate for CleanEvict accesses
system.l2.CleanEvict_mshr_miss_rate::total          inf                       # mshr miss rate for CleanEvict accesses
system.l2.UpgradeReq_hits::.switch_cpus.data         3508                       # number of UpgradeReq hits
system.l2.UpgradeReq_hits::total                 3508                       # number of UpgradeReq hits
system.l2.UpgradeReq_misses::.switch_cpus.data         1068                       # number of UpgradeReq misses
system.l2.UpgradeReq_misses::total               1068                       # number of UpgradeReq misses
system.l2.UpgradeReq_miss_latency::.switch_cpus.data      4069440                       # number of UpgradeReq miss cycles
system.l2.UpgradeReq_miss_latency::total      4069440                       # number of UpgradeReq miss cycles
system.l2.UpgradeReq_accesses::.switch_cpus.data         4576                       # number of UpgradeReq accesses(hits+misses)
system.l2.UpgradeReq_accesses::total             4576                       # number of UpgradeReq accesses(hits+misses)
system.l2.UpgradeReq_miss_rate::.switch_cpus.data     0.233392                       # miss rate for UpgradeReq accesses
system.l2.UpgradeReq_miss_rate::total        0.233392                       # miss rate for UpgradeReq accesses
system.l2.UpgradeReq_avg_miss_latency::.switch_cpus.data  3810.337079                       # average UpgradeReq miss latency
system.l2.UpgradeReq_avg_miss_latency::total  3810.337079                       # average UpgradeReq miss latency
system.l2.UpgradeReq_mshr_misses::.switch_cpus.data         1068                       # number of UpgradeReq MSHR misses
system.l2.UpgradeReq_mshr_misses::total          1068                       # number of UpgradeReq MSHR misses
system.l2.UpgradeReq_mshr_miss_latency::.switch_cpus.data     21477000                       # number of UpgradeReq MSHR miss cycles
system.l2.UpgradeReq_mshr_miss_latency::total     21477000                       # number of UpgradeReq MSHR miss cycles
system.l2.UpgradeReq_mshr_miss_rate::.switch_cpus.data     0.233392                       # mshr miss rate for UpgradeReq accesses
system.l2.UpgradeReq_mshr_miss_rate::total     0.233392                       # mshr miss rate for UpgradeReq accesses
system.l2.UpgradeReq_avg_mshr_miss_latency::.switch_cpus.data 20109.550562                       # average UpgradeReq mshr miss latency
system.l2.UpgradeReq_avg_mshr_miss_latency::total 20109.550562                       # average UpgradeReq mshr miss latency
system.l2.ReadExReq_hits::.switch_cpus.data       379376                       # number of ReadExReq hits
system.l2.ReadExReq_hits::total                379376                       # number of ReadExReq hits
system.l2.ReadExReq_misses::.switch_cpus.data       460236                       # number of ReadExReq misses
system.l2.ReadExReq_misses::total              460236                       # number of ReadExReq misses
system.l2.ReadExReq_miss_latency::.switch_cpus.data  37042293129                       # number of ReadExReq miss cycles
system.l2.ReadExReq_miss_latency::total   37042293129                       # number of ReadExReq miss cycles
system.l2.ReadExReq_accesses::.switch_cpus.data       839612                       # number of ReadExReq accesses(hits+misses)
system.l2.ReadExReq_accesses::total            839612                       # number of ReadExReq accesses(hits+misses)
system.l2.ReadExReq_miss_rate::.switch_cpus.data     0.548153                       # miss rate for ReadExReq accesses
system.l2.ReadExReq_miss_rate::total         0.548153                       # miss rate for ReadExReq accesses
system.l2.ReadExReq_avg_miss_latency::.switch_cpus.data 80485.431668                       # average ReadExReq miss latency
system.l2.ReadExReq_avg_miss_latency::total 80485.431668                       # average ReadExReq miss latency
system.l2.ReadExReq_mshr_misses::.switch_cpus.data       460236                       # number of ReadExReq MSHR misses
system.l2.ReadExReq_mshr_misses::total         460236                       # number of ReadExReq MSHR misses
system.l2.ReadExReq_mshr_miss_latency::.switch_cpus.data  32439931632                       # number of ReadExReq MSHR miss cycles
system.l2.ReadExReq_mshr_miss_latency::total  32439931632                       # number of ReadExReq MSHR miss cycles
system.l2.ReadExReq_mshr_miss_rate::.switch_cpus.data     0.548153                       # mshr miss rate for ReadExReq accesses
system.l2.ReadExReq_mshr_miss_rate::total     0.548153                       # mshr miss rate for ReadExReq accesses
system.l2.ReadExReq_avg_mshr_miss_latency::.switch_cpus.data 70485.428415                       # average ReadExReq mshr miss latency
system.l2.ReadExReq_avg_mshr_miss_latency::total 70485.428415                       # average ReadExReq mshr miss latency
system.l2.ReadCleanReq_hits::.switch_cpus.inst     17021074                       # number of ReadCleanReq hits
system.l2.ReadCleanReq_hits::total           17021074                       # number of ReadCleanReq hits
system.l2.ReadCleanReq_misses::.switch_cpus.inst      2286019                       # number of ReadCleanReq misses
system.l2.ReadCleanReq_misses::total          2286019                       # number of ReadCleanReq misses
[...]
system.cpu.itb_walker_cache.tags.tag_accesses            0                       # Number of tag accesses
system.cpu.itb_walker_cache.tags.data_accesses            0                       # Number of data accesses
system.cpu.itb.walker.pwrStateResidencyTicks::UNDEFINED 1983463718500                       # Cumulative time (in ticks) in various power states
system.cpu.dtb_walker_cache.pwrStateResidencyTicks::UNDEFINED 1983463718500                       # Cumulative time (in ticks) in various power states
system.cpu.dtb_walker_cache.blocked_cycles::no_mshrs            0                       # number of cycles access was blocked
system.cpu.dtb_walker_cache.blocked_cycles::no_targets            0                       # number of cycles access was blocked
system.cpu.dtb_walker_cache.blocked::no_mshrs            0                       # number of cycles access was blocked
system.cpu.dtb_walker_cache.blocked::no_targets            0                       # number of cycles access was blocked
system.cpu.dtb_walker_cache.avg_blocked_cycles::no_mshrs          nan                       # average number of cycles each access was blocked
system.cpu.dtb_walker_cache.avg_blocked_cycles::no_targets          nan                       # average number of cycles each access was blocked
system.cpu.dtb_walker_cache.replacements            0                       # number of replacements
system.cpu.dtb_walker_cache.tags.pwrStateResidencyTicks::UNDEFINED 1983463718500                       # Cumulative time (in ticks) in various power states
system.cpu.dtb_walker_cache.tags.tagsinuse            0                       # Cycle average of tags in use
system.cpu.dtb_walker_cache.tags.total_refs            0                       # Total number of references to valid blocks.
system.cpu.dtb_walker_cache.tags.sampled_refs            0                       # Sample count of references to valid blocks.
system.cpu.dtb_walker_cache.tags.avg_refs          nan                       # Average number of references to valid blocks.
system.cpu.dtb_walker_cache.tags.warmup_cycle            0                       # Cycle when the warmup percentage was hit.
system.cpu.dtb_walker_cache.tags.tag_accesses            0                       # Number of tag accesses
system.cpu.dtb_walker_cache.tags.data_accesses            0                       # Number of data accesses
system.cpu.dcache.pwrStateResidencyTicks::UNDEFINED 1983463718500                       # Cumulative time (in ticks) in various power states
system.cpu.dcache.demand_hits::.cpu.data    466705304                       # number of demand (read+write) hits
system.cpu.dcache.demand_hits::.switch_cpus.data    257916925                       # number of demand (read+write) hits
system.cpu.dcache.demand_hits::total        724622229                       # number of demand (read+write) hits
system.cpu.dcache.overall_hits::.cpu.data    466717839                       # number of overall hits
system.cpu.dcache.overall_hits::.switch_cpus.data    258242994                       # number of overall hits
system.cpu.dcache.overall_hits::total       724960833                       # number of overall hits
system.cpu.dcache.demand_misses::.cpu.data      6104649                       # number of demand (read+write) misses
system.cpu.dcache.demand_misses::.switch_cpus.data      3202656                       # number of demand (read+write) misses
system.cpu.dcache.demand_misses::total        9307305                       # number of demand (read+write) misses
system.cpu.dcache.overall_misses::.cpu.data      6110750                       # number of overall misses
system.cpu.dcache.overall_misses::.switch_cpus.data      3214236                       # number of overall misses
system.cpu.dcache.overall_misses::total       9324986                       # number of overall misses
system.cpu.dcache.demand_miss_latency::.switch_cpus.data 193127494933                       # number of demand (read+write) miss cycles
system.cpu.dcache.demand_miss_latency::total 193127494933                       # number of demand (read+write) miss cycles
system.cpu.dcache.overall_miss_latency::.switch_cpus.data 193127494933                       # number of overall miss cycles
system.cpu.dcache.overall_miss_latency::total 193127494933                       # number of overall miss cycles
system.cpu.dcache.demand_accesses::.cpu.data    472809953                       # number of demand (read+write) accesses
system.cpu.dcache.demand_accesses::.switch_cpus.data    261119581                       # number of demand (read+write) accesses
system.cpu.dcache.demand_accesses::total    733929534                       # number of demand (read+write) accesses
system.cpu.dcache.overall_accesses::.cpu.data    472828589                       # number of overall (read+write) accesses
system.cpu.dcache.overall_accesses::.switch_cpus.data    261457230                       # number of overall (read+write) accesses
system.cpu.dcache.overall_accesses::total    734285819                       # number of overall (read+write) accesses
system.cpu.dcache.demand_miss_rate::.cpu.data     0.012911                       # miss rate for demand accesses
system.cpu.dcache.demand_miss_rate::.switch_cpus.data     0.012265                       # miss rate for demand accesses
system.cpu.dcache.demand_miss_rate::total     0.012681                       # miss rate for demand accesses
system.cpu.dcache.overall_miss_rate::.cpu.data     0.012924                       # miss rate for overall accesses
system.cpu.dcache.overall_miss_rate::.switch_cpus.data     0.012294                       # miss rate for overall accesses
system.cpu.dcache.overall_miss_rate::total     0.012699                       # miss rate for overall accesses
system.cpu.dcache.demand_avg_miss_latency::.switch_cpus.data 60302.291265                       # average overall miss latency
system.cpu.dcache.demand_avg_miss_latency::total 20750.098437                       # average overall miss latency
system.cpu.dcache.overall_avg_miss_latency::.switch_cpus.data 60085.038850                       # average overall miss latency
system.cpu.dcache.overall_avg_miss_latency::total 20710.754411                       # average overall miss latency
system.cpu.dcache.blocked_cycles::no_mshrs    381299641                       # number of cycles access was blocked
system.cpu.dcache.blocked_cycles::no_targets            0                       # number of cycles access was blocked
system.cpu.dcache.blocked::no_mshrs           3214236                       # number of cycles access was blocked
system.cpu.dcache.blocked::no_targets               0                       # number of cycles access was blocked
system.cpu.dcache.avg_blocked_cycles::no_mshrs   118.628390                       # average number of cycles each access was blocked
system.cpu.dcache.avg_blocked_cycles::no_targets          nan                       # average number of cycles each access was blocked
system.cpu.dcache.writebacks::.writebacks      4042034                       # number of writebacks
system.cpu.dcache.writebacks::total           4042034                       # number of writebacks
system.cpu.dcache.demand_mshr_misses::.switch_cpus.data      3202656                       # number of demand (read+write) MSHR misses
system.cpu.dcache.demand_mshr_misses::total      3202656                       # number of demand (read+write) MSHR misses
system.cpu.dcache.overall_mshr_misses::.switch_cpus.data      3214236                       # number of overall MSHR misses
system.cpu.dcache.overall_mshr_misses::total      3214236                       # number of overall MSHR misses
system.cpu.dcache.demand_mshr_miss_latency::.switch_cpus.data 189924838933                       # number of demand (read+write) MSHR miss cycles
system.cpu.dcache.demand_mshr_miss_latency::total 189924838933                       # number of demand (read+write) MSHR miss cycles
system.cpu.dcache.overall_mshr_miss_latency::.switch_cpus.data 190663566933                       # number of overall MSHR miss cycles
system.cpu.dcache.overall_mshr_miss_latency::total 190663566933                       # number of overall MSHR miss cycles
system.cpu.dcache.demand_mshr_miss_rate::.switch_cpus.data     0.012265                       # mshr miss rate for demand accesses
system.cpu.dcache.demand_mshr_miss_rate::total     0.004364                       # mshr miss rate for demand accesses
system.cpu.dcache.overall_mshr_miss_rate::.switch_cpus.data     0.012294                       # mshr miss rate for overall accesses
system.cpu.dcache.overall_mshr_miss_rate::total     0.004377                       # mshr miss rate for overall accesses
system.cpu.dcache.demand_avg_mshr_miss_latency::.switch_cpus.data 59302.291265                       # average overall mshr miss latency
system.cpu.dcache.demand_avg_mshr_miss_latency::total 59302.291265                       # average overall mshr miss latency
system.cpu.dcache.overall_avg_mshr_miss_latency::.switch_cpus.data 59318.471616                       # average overall mshr miss latency
system.cpu.dcache.overall_avg_mshr_miss_latency::total 59318.471616                       # average overall mshr miss latency
system.cpu.dcache.replacements                9319898                       # number of replacements
system.cpu.dcache.ReadReq_hits::.cpu.data    289269326                       # number of ReadReq hits
system.cpu.dcache.ReadReq_hits::.switch_cpus.data    170008912                       # number of ReadReq hits
system.cpu.dcache.ReadReq_hits::total       459278238                       # number of ReadReq hits
system.cpu.dcache.ReadReq_misses::.cpu.data      4306224                       # number of ReadReq misses
system.cpu.dcache.ReadReq_misses::.switch_cpus.data      2358468                       # number of ReadReq misses
system.cpu.dcache.ReadReq_misses::total       6664692                       # number of ReadReq misses
system.cpu.dcache.ReadReq_miss_latency::.switch_cpus.data 145473790000                       # number of ReadReq miss cycles
system.cpu.dcache.ReadReq_miss_latency::total 145473790000                       # number of ReadReq miss cycles
system.cpu.dcache.ReadReq_accesses::.cpu.data    293575550                       # number of ReadReq accesses(hits+misses)
system.cpu.dcache.ReadReq_accesses::.switch_cpus.data    172367380                       # number of ReadReq accesses(hits+misses)
system.cpu.dcache.ReadReq_accesses::total    465942930                       # number of ReadReq accesses(hits+misses)
system.cpu.dcache.ReadReq_miss_rate::.cpu.data     0.014668                       # miss rate for ReadReq accesses
system.cpu.dcache.ReadReq_miss_rate::.switch_cpus.data     0.013683                       # miss rate for ReadReq accesses
system.cpu.dcache.ReadReq_miss_rate::total     0.014304                       # miss rate for ReadReq accesses
system.cpu.dcache.ReadReq_avg_miss_latency::.switch_cpus.data 61681.477128                       # average ReadReq miss latency
system.cpu.dcache.ReadReq_avg_miss_latency::total 21827.533816                       # average ReadReq miss latency
system.cpu.dcache.ReadReq_mshr_misses::.switch_cpus.data      2358468                       # number of ReadReq MSHR misses
system.cpu.dcache.ReadReq_mshr_misses::total      2358468                       # number of ReadReq MSHR misses
system.cpu.dcache.ReadReq_mshr_miss_latency::.switch_cpus.data 143115322000                       # number of ReadReq MSHR miss cycles
system.cpu.dcache.ReadReq_mshr_miss_latency::total 143115322000                       # number of ReadReq MSHR miss cycles
system.cpu.dcache.ReadReq_mshr_miss_rate::.switch_cpus.data     0.013683                       # mshr miss rate for ReadReq accesses
system.cpu.dcache.ReadReq_mshr_miss_rate::total     0.005062                       # mshr miss rate for ReadReq accesses
system.cpu.dcache.ReadReq_avg_mshr_miss_latency::.switch_cpus.data 60681.477128                       # average ReadReq mshr miss latency
system.cpu.dcache.ReadReq_avg_mshr_miss_latency::total 60681.477128                       # average ReadReq mshr miss latency
system.cpu.dcache.WriteReq_hits::.cpu.data    177435978                       # number of WriteReq hits
system.cpu.dcache.WriteReq_hits::.switch_cpus.data     87908013                       # number of WriteReq hits
system.cpu.dcache.WriteReq_hits::total      265343991                       # number of WriteReq hits
system.cpu.dcache.WriteReq_misses::.cpu.data      1798425                       # number of WriteReq misses
system.cpu.dcache.WriteReq_misses::.switch_cpus.data       844188                       # number of WriteReq misses
system.cpu.dcache.WriteReq_misses::total      2642613                       # number of WriteReq misses
system.cpu.dcache.WriteReq_miss_latency::.switch_cpus.data  47653704933                       # number of WriteReq miss cycles
system.cpu.dcache.WriteReq_miss_latency::total  47653704933                       # number of WriteReq miss cycles
system.cpu.dcache.WriteReq_accesses::.cpu.data    179234403                       # number of WriteReq accesses(hits+misses)
system.cpu.dcache.WriteReq_accesses::.switch_cpus.data     88752201                       # number of WriteReq accesses(hits+misses)
system.cpu.dcache.WriteReq_accesses::total    267986604                       # number of WriteReq accesses(hits+misses)
system.cpu.dcache.WriteReq_miss_rate::.cpu.data     0.010034                       # miss rate for WriteReq accesses
system.cpu.dcache.WriteReq_miss_rate::.switch_cpus.data     0.009512                       # miss rate for WriteReq accesses
system.cpu.dcache.WriteReq_miss_rate::total     0.009861                       # miss rate for WriteReq accesses
system.cpu.dcache.WriteReq_avg_miss_latency::.switch_cpus.data 56449.161719                       # average WriteReq miss latency
system.cpu.dcache.WriteReq_avg_miss_latency::total 18032.797437                       # average WriteReq miss latency
system.cpu.dcache.WriteReq_mshr_misses::.switch_cpus.data       844188                       # number of WriteReq MSHR misses
system.cpu.dcache.WriteReq_mshr_misses::total       844188                       # number of WriteReq MSHR misses
system.cpu.dcache.WriteReq_mshr_miss_latency::.switch_cpus.data  46809516933                       # number of WriteReq MSHR miss cycles
system.cpu.dcache.WriteReq_mshr_miss_latency::total  46809516933                       # number of WriteReq MSHR miss cycles
system.cpu.dcache.WriteReq_mshr_miss_rate::.switch_cpus.data     0.009512                       # mshr miss rate for WriteReq accesses
system.cpu.dcache.WriteReq_mshr_miss_rate::total     0.003150                       # mshr miss rate for WriteReq accesses
system.cpu.dcache.WriteReq_avg_mshr_miss_latency::.switch_cpus.data 55449.161719                       # average WriteReq mshr miss latency
system.cpu.dcache.WriteReq_avg_mshr_miss_latency::total 55449.161719                       # average WriteReq mshr miss latency
system.cpu.dcache.SoftPFReq_hits::.cpu.data        12535                       # number of SoftPFReq hits
system.cpu.dcache.SoftPFReq_hits::.switch_cpus.data       326069                       # number of SoftPFReq hits
system.cpu.dcache.SoftPFReq_hits::total        338604                       # number of SoftPFReq hits
system.cpu.dcache.SoftPFReq_misses::.cpu.data         6101                       # number of SoftPFReq misses
system.cpu.dcache.SoftPFReq_misses::.switch_cpus.data        11580                       # number of SoftPFReq misses
system.cpu.dcache.SoftPFReq_misses::total        17681                       # number of SoftPFReq misses
system.cpu.dcache.SoftPFReq_accesses::.cpu.data        18636                       # number of SoftPFReq accesses(hits+misses)
system.cpu.dcache.SoftPFReq_accesses::.switch_cpus.data       337649                       # number of SoftPFReq accesses(hits+misses)
system.cpu.dcache.SoftPFReq_accesses::total       356285                       # number of SoftPFReq accesses(hits+misses)
system.cpu.dcache.SoftPFReq_miss_rate::.cpu.data     0.327377                       # miss rate for SoftPFReq accesses
system.cpu.dcache.SoftPFReq_miss_rate::.switch_cpus.data     0.034296                       # miss rate for SoftPFReq accesses
system.cpu.dcache.SoftPFReq_miss_rate::total     0.049626                       # miss rate for SoftPFReq accesses
system.cpu.dcache.SoftPFReq_mshr_misses::.switch_cpus.data        11580                       # number of SoftPFReq MSHR misses
system.cpu.dcache.SoftPFReq_mshr_misses::total        11580                       # number of SoftPFReq MSHR misses
system.cpu.dcache.SoftPFReq_mshr_miss_latency::.switch_cpus.data    738728000                       # number of SoftPFReq MSHR miss cycles
system.cpu.dcache.SoftPFReq_mshr_miss_latency::total    738728000                       # number of SoftPFReq MSHR miss cycles
system.cpu.dcache.SoftPFReq_mshr_miss_rate::.switch_cpus.data     0.034296                       # mshr miss rate for SoftPFReq accesses
system.cpu.dcache.SoftPFReq_mshr_miss_rate::total     0.032502                       # mshr miss rate for SoftPFReq accesses
system.cpu.dcache.SoftPFReq_avg_mshr_miss_latency::.switch_cpus.data 63793.436960                       # average SoftPFReq mshr miss latency
system.cpu.dcache.SoftPFReq_avg_mshr_miss_latency::total 63793.436960                       # average SoftPFReq mshr miss latency
system.cpu.dcache.tags.pwrStateResidencyTicks::UNDEFINED 1983463718500                       # Cumulative time (in ticks) in various power states
system.cpu.dcache.tags.tagsinuse           511.995537                       # Cycle average of tags in use
system.cpu.dcache.tags.total_refs           732938800                       # Total number of references to valid blocks.
system.cpu.dcache.tags.sampled_refs           9319898                       # Sample count of references to valid blocks.
system.cpu.dcache.tags.avg_refs             78.642363                       # Average number of references to valid blocks.
system.cpu.dcache.tags.warmup_cycle              1000                       # Cycle when the warmup percentage was hit.
system.cpu.dcache.tags.occ_blocks::.cpu.data   305.642227                       # Average occupied blocks per requestor
system.cpu.dcache.tags.occ_blocks::.switch_cpus.data   206.353310                       # Average occupied blocks per requestor
system.cpu.dcache.tags.occ_percent::.cpu.data     0.596957                       # Average percentage of cache occupancy
system.cpu.dcache.tags.occ_percent::.switch_cpus.data     0.403034                       # Average percentage of cache occupancy
system.cpu.dcache.tags.occ_percent::total     0.999991                       # Average percentage of cache occupancy
system.cpu.dcache.tags.occ_task_id_blocks::1024          512                       # Occupied blocks per task id
system.cpu.dcache.tags.age_task_id_blocks_1024::0           49                       # Occupied blocks per task id
system.cpu.dcache.tags.age_task_id_blocks_1024::1          282                       # Occupied blocks per task id
system.cpu.dcache.tags.age_task_id_blocks_1024::2          156                       # Occupied blocks per task id
system.cpu.dcache.tags.age_task_id_blocks_1024::3           14                       # Occupied blocks per task id
system.cpu.dcache.tags.age_task_id_blocks_1024::4           11                       # Occupied blocks per task id
system.cpu.dcache.tags.occ_task_id_percent::1024            1                       # Percentage of cache occupancy per task id
system.cpu.dcache.tags.tag_accesses        2946463686                       # Number of tag accesses
system.cpu.dcache.tags.data_accesses       2946463686                       # Number of data accesses

---------- End Simulation Statistics   ----------
