
---------- Begin Simulation Statistics ----------
final_tick                               1393077765000                       # Number of ticks from beginning of simulation (restored from checkpoints and never reset)
host_inst_rate                                 284695                       # Simulator instruction rate (inst/s)
host_mem_usage                                4427548                       # Number of bytes of host memory used
host_op_rate                                   538074                       # Simulator op (including micro ops) rate (op/s)
host_seconds                                  5268.79                       # Real time elapsed on the host
host_tick_rate                               48590120                       # Simulator tick rate (ticks/s)
sim_freq                                 1000000000000                       # Frequency of simulated ticks
sim_insts                                  1500000001                       # Number of instructions simulated
sim_ops                                    2835000827                       # Number of ops (including micro ops) simulated
sim_seconds                                  0.256011                       # Number of seconds simulated
sim_ticks                                256011276500                       # Number of ticks simulated
system.cpu.committedInsts                           0                       # Number of instructions committed
system.cpu.committedOps                             0                       # Number of ops (including micro ops) committed
system.cpu.dtb.rdAccesses                           0                       # TLB accesses on read requests
system.cpu.dtb.rdMisses                             0                       # TLB misses on read requests
system.cpu.dtb.wrAccesses                           0                       # TLB accesses on write requests
system.cpu.dtb.wrMisses                             0                       # TLB misses on write requests
system.cpu.idle_fraction                            0                       # Percentage of idle cycles
system.cpu.itb.rdAccesses                           0                       # TLB accesses on read requests
system.cpu.itb.rdMisses                             0                       # TLB misses on read requests
system.cpu.itb.wrAccesses                           0                       # TLB accesses on write requests
system.cpu.itb.wrMisses                             0                       # TLB misses on write requests
system.cpu.not_idle_fraction                        1                       # Percentage of non-idle cycles
system.cpu.numCycles                                0                       # number of cpu cycles simulated
system.cpu.numWorkItemsCompleted                    0                       # number of work items this cpu completed
system.cpu.numWorkItemsStarted                      0                       # number of work items this cpu started
system.cpu.num_busy_cycles                          0                       # Number of busy cycles
system.cpu.num_conditional_control_insts            0                       # number of instructions that are conditional controls
system.cpu.num_fp_alu_accesses                      0                       # Number of float alu accesses
system.cpu.num_fp_insts                             0                       # number of float instructions
system.cpu.num_fp_register_reads                    0                       # number of times the floating registers were read
system.cpu.num_fp_register_writes                   0                       # number of times the floating registers were written
system.cpu.num_func_calls                           0                       # number of times a function call or return occured
system.cpu.num_idle_cycles                          0                       # Number of idle cycles
system.cpu.num_int_alu_accesses                     0                       # Number of integer alu accesses
system.cpu.num_int_insts                            0                       # number of integer instructions
system.cpu.num_int_register_reads                   0                       # number of times the integer registers were read
system.cpu.num_int_register_writes                  0                       # number of times the integer registers were written
system.cpu.num_load_insts                           0                       # Number of load instructions
system.cpu.num_mem_refs                             0                       # number of memory refs
system.cpu.num_store_insts                          0                       # Number of store instructions
system.cpu.num_vec_alu_accesses                     0                       # Number of vector alu accesses
system.cpu.num_vec_insts                            0                       # number of vector instructions
system.cpu.num_vec_register_reads                   0                       # number of times the vector registers were read
system.cpu.num_vec_register_writes                  0                       # number of times the vector registers were written
system.cpu.op_class::No_OpClass                     0                       # Class of executed instruction
system.cpu.op_class::IntAlu                         0                       # Class of executed instruction
system.cpu.op_class::IntMult                        0                       # Class of executed instruction
system.cpu.op_class::IntDiv                         0                       # Class of executed instruction
system.cpu.op_class::FloatAdd                       0                       # Class of executed instruction
system.cpu.op_class::FloatCmp                       0                       # Class of executed instruction
system.cpu.op_class::FloatCvt                       0                       # Class of executed instruction
system.cpu.op_class::FloatMult                      0                       # Class of executed instruction
system.cpu.op_class::FloatMultAcc                   0                       # Class of executed instruction
system.cpu.op_class::FloatDiv                       0                       # Class of executed instruction
system.cpu.op_class::FloatMisc                      0                       # Class of executed instruction
system.cpu.op_class::FloatSqrt                      0                       # Class of executed instruction
system.cpu.op_class::SimdAdd                        0                       # Class of executed instruction
system.cpu.op_class::SimdAddAcc                     0                       # Class of executed instruction
system.cpu.op_class::SimdAlu                        0                       # Class of executed instruction
system.cpu.op_class::SimdCmp                        0                       # Class of executed instruction
system.cpu.op_class::SimdCvt                        0                       # Class of executed instruction
system.cpu.op_class::SimdMisc                       0                       # Class of executed instruction
system.cpu.op_class::SimdMult                       0                       # Class of executed instruction
system.cpu.op_class::SimdMultAcc                    0                       # Class of executed instruction
system.cpu.op_class::SimdShift                      0                       # Class of executed instruction
system.cpu.op_class::SimdShiftAcc                   0                       # Class of executed instruction
system.cpu.op_class::SimdDiv                        0                       # Class of executed instruction
system.cpu.op_class::SimdSqrt                       0                       # Class of executed instruction
system.cpu.op_class::SimdFloatAdd                   0                       # Class of executed instruction
system.cpu.op_class::SimdFloatAlu                   0                       # Class of executed instruction
system.cpu.op_class::SimdFloatCmp                   0                       # Class of executed instruction
system.cpu.op_class::SimdFloatCvt                   0                       # Class of executed instruction
system.cpu.op_class::SimdFloatDiv                   0                       # Class of executed instruction
system.cpu.op_class::SimdFloatMisc                  0                       # Class of executed instruction
system.cpu.op_class::SimdFloatMult                  0                       # Class of executed instruction
system.cpu.op_class::SimdFloatMultAcc               0                       # Class of executed instruction
system.cpu.op_class::SimdFloatSqrt                  0                       # Class of executed instruction
system.cpu.op_class::SimdReduceAdd                  0                       # Class of executed instruction
system.cpu.op_class::SimdReduceAlu                  0                       # Class of executed instruction
system.cpu.op_class::SimdReduceCmp                  0                       # Class of executed instruction
system.cpu.op_class::SimdFloatReduceAdd             0                       # Class of executed instruction
system.cpu.op_class::SimdFloatReduceCmp             0                       # Class of executed instruction
system.cpu.op_class::SimdAes                        0                       # Class of executed instruction
system.cpu.op_class::SimdAesMix                     0                       # Class of executed instruction
system.cpu.op_class::SimdSha1Hash                   0                       # Class of executed instruction
system.cpu.op_class::SimdSha1Hash2                  0                       # Class of executed instruction
system.cpu.op_class::SimdSha256Hash                 0                       # Class of executed instruction
system.cpu.op_class::SimdSha256Hash2                0                       # Class of executed instruction
system.cpu.op_class::SimdShaSigma2                  0                       # Class of executed instruction
system.cpu.op_class::SimdShaSigma3                  0                       # Class of executed instruction
system.cpu.op_class::SimdPredAlu                    0                       # Class of executed instruction
system.cpu.op_class::MemRead                        0                       # Class of executed instruction
system.cpu.op_class::MemWrite                       0                       # Class of executed instruction
system.cpu.op_class::FloatMemRead                   0                       # Class of executed instruction
system.cpu.op_class::FloatMemWrite                  0                       # Class of executed instruction
system.cpu.op_class::IprAccess                      0                       # Class of executed instruction
system.cpu.op_class::InstPrefetch                   0                       # Class of executed instruction
system.cpu.op_class::total                          0                       # Class of executed instruction
system.cpu.workload.numSyscalls                   419                       # Number of system calls
system.membus.snoop_filter.hit_multi_requests            0                       # Number of requests hitting in the snoop filter with multiple (>1) holders of the requested data.
system.membus.snoop_filter.hit_multi_snoops            0                       # Number of snoops hitting in the snoop filter with multiple (>1) holders of the requested data.
system.membus.snoop_filter.hit_single_requests       707532                       # Number of requests hitting in the snoop filter with a single holder of the requested data.
system.membus.snoop_filter.hit_single_snoops            0                       # Number of snoops hitting in the snoop filter with a single holder of the requested data.
system.membus.snoop_filter.tot_requests       1414842                       # Total number of requests made to the snoop filter.
system.membus.snoop_filter.tot_snoops               0                       # Total number of snoops made to the snoop filter.
system.switch_cpus.branchPred.BTBCorrect            0                       # Number of correct BTB predictions (this stat may not work properly.
system.switch_cpus.branchPred.BTBHitPct      0.000000                       # BTB Hit Percentage
system.switch_cpus.branchPred.BTBHits               0                       # Number of BTB hits
system.switch_cpus.branchPred.BTBLookups    143233600                       # Number of BTB lookups
system.switch_cpus.branchPred.RASInCorrect          185                       # Number of incorrect RAS predictions.
system.switch_cpus.branchPred.condIncorrect      8622954                       # Number of conditional branches incorrect
system.switch_cpus.branchPred.condPredicted    154704402                       # Number of conditional branches predicted
system.switch_cpus.branchPred.indirectHits     55560501                       # Number of indirect target hits.
system.switch_cpus.branchPred.indirectLookups    143233600                       # Number of indirect predictor lookups.
system.switch_cpus.branchPred.indirectMisses     87673099                       # Number of indirect misses.
system.switch_cpus.branchPred.lookups       168558233                       # Number of BP lookups
system.switch_cpus.branchPred.usedRAS         5154818                       # Number of times the RAS was used to get a target.
system.switch_cpus.branchPredindirectMispredicted      7014584                       # Number of mispredicted indirect branches.
system.switch_cpus.cc_regfile_reads         607567877                       # number of cc regfile reads
system.switch_cpus.cc_regfile_writes        317657871                       # number of cc regfile writes
system.switch_cpus.commit.amos                      0                       # Number of atomic instructions committed
system.switch_cpus.commit.branchMispredicts      8624219                       # The number of times a branch was mispredicted
system.switch_cpus.commit.branches          110170214                       # Number of branches committed
system.switch_cpus.commit.bw_lim_events      41041504                       # number cycles where commit BW limit reached
system.switch_cpus.commit.commitNonSpecStalls          667                       # The number of times commit has been forced to stall to communicate backwards
system.switch_cpus.commit.commitSquashedInsts    187601869                       # The number of squashed insts skipped by commit
system.switch_cpus.commit.committedInsts    500000001                       # Number of instructions committed
system.switch_cpus.commit.committedOps      935034654                       # Number of ops (including micro ops) committed
system.switch_cpus.commit.committed_per_cycle::samples    481959643                       # Number of insts commited each cycle
system.switch_cpus.commit.committed_per_cycle::mean     1.940068                       # Number of insts commited each cycle
system.switch_cpus.commit.committed_per_cycle::stdev     2.532511                       # Number of insts commited each cycle
system.switch_cpus.commit.committed_per_cycle::underflows            0      0.00%      0.00% # Number of insts commited each cycle
system.switch_cpus.commit.committed_per_cycle::0    219417766     45.53%     45.53% # Number of insts commited each cycle
system.switch_cpus.commit.committed_per_cycle::1     69356210     14.39%     59.92% # Number of insts commited each cycle
system.switch_cpus.commit.committed_per_cycle::2     38645461      8.02%     67.94% # Number of insts commited each cycle
system.switch_cpus.commit.committed_per_cycle::3     55829379     11.58%     79.52% # Number of insts commited each cycle
system.switch_cpus.commit.committed_per_cycle::4     22925819      4.76%     84.28% # Number of insts commited each cycle
system.switch_cpus.commit.committed_per_cycle::5     16628345      3.45%     87.73% # Number of insts commited each cycle
system.switch_cpus.commit.committed_per_cycle::6      9083762      1.88%     89.61% # Number of insts commited each cycle
system.switch_cpus.commit.committed_per_cycle::7      9031397      1.87%     91.48% # Number of insts commited each cycle
system.switch_cpus.commit.committed_per_cycle::8     41041504      8.52%    100.00% # Number of insts commited each cycle
system.switch_cpus.commit.committed_per_cycle::overflows            0      0.00%    100.00% # Number of insts commited each cycle
system.switch_cpus.commit.committed_per_cycle::min_value            0                       # Number of insts commited each cycle
system.switch_cpus.commit.committed_per_cycle::max_value            8                       # Number of insts commited each cycle
system.switch_cpus.commit.committed_per_cycle::total    481959643                       # Number of insts commited each cycle
system.switch_cpus.commit.fp_insts           47547044                       # Number of committed floating point instructions.
system.switch_cpus.commit.function_calls      4129074                       # Number of function calls committed.
system.switch_cpus.commit.int_insts         902889400                       # Number of committed integer instructions.
system.switch_cpus.commit.loads             110887945                       # Number of loads committed
system.switch_cpus.commit.membars                 142                       # Number of memory barriers committed
system.switch_cpus.commit.op_class_0::No_OpClass      3546385      0.38%      0.38% # Class of committed instruction
system.switch_cpus.commit.op_class_0::IntAlu    723387125     77.36%     77.74% # Class of committed instruction
system.switch_cpus.commit.op_class_0::IntMult       747480      0.08%     77.82% # Class of committed instruction
system.switch_cpus.commit.op_class_0::IntDiv      6986611      0.75%     78.57% # Class of committed instruction
system.switch_cpus.commit.op_class_0::FloatAdd      7857201      0.84%     79.41% # Class of committed instruction
system.switch_cpus.commit.op_class_0::FloatCmp            0      0.00%     79.41% # Class of committed instruction
system.switch_cpus.commit.op_class_0::FloatCvt            0      0.00%     79.41% # Class of committed instruction
system.switch_cpus.commit.op_class_0::FloatMult            0      0.00%     79.41% # Class of committed instruction
system.switch_cpus.commit.op_class_0::FloatMultAcc            0      0.00%     79.41% # Class of committed instruction
system.switch_cpus.commit.op_class_0::FloatDiv            0      0.00%     79.41% # Class of committed instruction
system.switch_cpus.commit.op_class_0::FloatMisc            0      0.00%     79.41% # Class of committed instruction
system.switch_cpus.commit.op_class_0::FloatSqrt            0      0.00%     79.41% # Class of committed instruction
system.switch_cpus.commit.op_class_0::SimdAdd            0      0.00%     79.41% # Class of committed instruction
system.switch_cpus.commit.op_class_0::SimdAddAcc            0      0.00%     79.41% # Class of committed instruction
system.switch_cpus.commit.op_class_0::SimdAlu      1775042      0.19%     79.60% # Class of committed instruction
system.switch_cpus.commit.op_class_0::SimdCmp            0      0.00%     79.60% # Class of committed instruction
system.switch_cpus.commit.op_class_0::SimdCvt       408994      0.04%     79.65% # Class of committed instruction
system.switch_cpus.commit.op_class_0::SimdMisc       410220      0.04%     79.69% # Class of committed instruction
system.switch_cpus.commit.op_class_0::SimdMult            0      0.00%     79.69% # Class of committed instruction
system.switch_cpus.commit.op_class_0::SimdMultAcc            0      0.00%     79.69% # Class of committed instruction
system.switch_cpus.commit.op_class_0::SimdShift            0      0.00%     79.69% # Class of committed instruction
system.switch_cpus.commit.op_class_0::SimdShiftAcc            0      0.00%     79.69% # Class of committed instruction
system.switch_cpus.commit.op_class_0::SimdDiv            0      0.00%     79.69% # Class of committed instruction
system.switch_cpus.commit.op_class_0::SimdSqrt            0      0.00%     79.69% # Class of committed instruction
system.switch_cpus.commit.op_class_0::SimdFloatAdd      6968419      0.75%     80.43% # Class of committed instruction
system.switch_cpus.commit.op_class_0::SimdFloatAlu            0      0.00%     80.43% # Class of committed instruction
system.switch_cpus.commit.op_class_0::SimdFloatCmp            0      0.00%     80.43% # Class of committed instruction
system.switch_cpus.commit.op_class_0::SimdFloatCvt       890671      0.10%     80.53% # Class of committed instruction
system.switch_cpus.commit.op_class_0::SimdFloatDiv            0      0.00%     80.53% # Class of committed instruction
system.switch_cpus.commit.op_class_0::SimdFloatMisc            0      0.00%     80.53% # Class of committed instruction
system.switch_cpus.commit.op_class_0::SimdFloatMult      6385557      0.68%     81.21% # Class of committed instruction
system.switch_cpus.commit.op_class_0::SimdFloatMultAcc            0      0.00%     81.21% # Class of committed instruction
system.switch_cpus.commit.op_class_0::SimdFloatSqrt            0      0.00%     81.21% # Class of committed instruction
system.switch_cpus.commit.op_class_0::SimdReduceAdd            0      0.00%     81.21% # Class of committed instruction
system.switch_cpus.commit.op_class_0::SimdReduceAlu            0      0.00%     81.21% # Class of committed instruction
system.switch_cpus.commit.op_class_0::SimdReduceCmp            0      0.00%     81.21% # Class of committed instruction
system.switch_cpus.commit.op_class_0::SimdFloatReduceAdd            0      0.00%     81.21% # Class of committed instruction
system.switch_cpus.commit.op_class_0::SimdFloatReduceCmp            0      0.00%     81.21% # Class of committed instruction
system.switch_cpus.commit.op_class_0::SimdAes            0      0.00%     81.21% # Class of committed instruction
system.switch_cpus.commit.op_class_0::SimdAesMix            0      0.00%     81.21% # Class of committed instruction
system.switch_cpus.commit.op_class_0::SimdSha1Hash            0      0.00%     81.21% # Class of committed instruction
system.switch_cpus.commit.op_class_0::SimdSha1Hash2            0      0.00%     81.21% # Class of committed instruction
system.switch_cpus.commit.op_class_0::SimdSha256Hash            0      0.00%     81.21% # Class of committed instruction
system.switch_cpus.commit.op_class_0::SimdSha256Hash2            0      0.00%     81.21% # Class of committed instruction
system.switch_cpus.commit.op_class_0::SimdShaSigma2            0      0.00%     81.21% # Class of committed instruction
system.switch_cpus.commit.op_class_0::SimdShaSigma3            0      0.00%     81.21% # Class of committed instruction
system.switch_cpus.commit.op_class_0::SimdPredAlu            0      0.00%     81.21% # Class of committed instruction
system.switch_cpus.commit.op_class_0::MemRead     99727595     10.67%     91.88% # Class of committed instruction
system.switch_cpus.commit.op_class_0::MemWrite     57199797      6.12%     98.00% # Class of committed instruction
system.switch_cpus.commit.op_class_0::FloatMemRead     11160350      1.19%     99.19% # Class of committed instruction
system.switch_cpus.commit.op_class_0::FloatMemWrite      7583206      0.81%    100.00% # Class of committed instruction
system.switch_cpus.commit.op_class_0::IprAccess            0      0.00%    100.00% # Class of committed instruction
system.switch_cpus.commit.op_class_0::InstPrefetch            0      0.00%    100.00% # Class of committed instruction
system.switch_cpus.commit.op_class_0::total    935034653                       # Class of committed instruction
system.switch_cpus.commit.refs              175670948                       # Number of memory references committed
system.switch_cpus.commit.swp_count                 0                       # Number of s/w prefetches committed
system.switch_cpus.commit.vec_insts                 0                       # Number of committed Vector instructions.
system.switch_cpus.committedInsts           500000000                       # Number of Instructions Simulated
system.switch_cpus.committedOps             935034653                       # Number of Ops (including micro ops) Simulated
system.switch_cpus.cpi                       1.024045                       # CPI: Cycles Per Instruction
system.switch_cpus.cpi_total                 1.024045                       # CPI: Total CPI of All Threads
system.switch_cpus.decode.BlockedCycles     144065477                       # Number of cycles decode is blocked
system.switch_cpus.decode.DecodedInsts     1219982272                       # Number of instructions handled by decode
system.switch_cpus.decode.IdleCycles         43452558                       # Number of cycles decode is idle
system.switch_cpus.decode.RunCycles         303996428                       # Number of cycles decode is running
system.switch_cpus.decode.SquashCycles        8699341                       # Number of cycles decode is squashing
system.switch_cpus.decode.UnblockCycles       9368869                       # Number of cycles decode is unblocking
system.switch_cpus.dtb.rdAccesses           125112182                       # TLB accesses on read requests
system.switch_cpus.dtb.rdMisses                382791                       # TLB misses on read requests
system.switch_cpus.dtb.wrAccesses            70622157                       # TLB accesses on write requests
system.switch_cpus.dtb.wrMisses                 10665                       # TLB misses on write requests
system.switch_cpus.fetch.Branches           168558233                       # Number of branches that fetch encountered
system.switch_cpus.fetch.CacheLines         109725097                       # Number of cache lines fetched
system.switch_cpus.fetch.Cycles             373213169                       # Number of cycles fetch has run and was not squashing or blocked
system.switch_cpus.fetch.IcacheSquashes       1865935                       # Number of outstanding Icache misses that were squashed
system.switch_cpus.fetch.IcacheWaitRetryStallCycles      2656676                       # Number of stall cycles due to full MSHR
system.switch_cpus.fetch.Insts              757749597                       # Number of instructions fetch has processed
system.switch_cpus.fetch.MiscStallCycles       347464                       # Number of cycles fetch has spent waiting on interrupts, or bad addresses, or out of MSHRs
system.switch_cpus.fetch.PendingTrapStallCycles        15344                       # Number of stall cycles due to pending traps
system.switch_cpus.fetch.SquashCycles        17398682                       # Number of cycles fetch has spent squashing
system.switch_cpus.fetch.TlbCycles                 31                       # Number of cycles fetch has spent waiting for tlb
system.switch_cpus.fetch.branchRate          0.329201                       # Number of branch fetches per cycle
system.switch_cpus.fetch.icacheStallCycles    124650655                       # Number of cycles fetch is stalled on an Icache miss
system.switch_cpus.fetch.predictedBranches     60715319                       # Number of branches that fetch has predicted taken
system.switch_cpus.fetch.rate                1.479914                       # Number of inst fetches per cycle
system.switch_cpus.fetch.rateDist::samples    509582680                       # Number of instructions fetched each cycle (Total)
system.switch_cpus.fetch.rateDist::mean      2.780977                       # Number of instructions fetched each cycle (Total)
system.switch_cpus.fetch.rateDist::stdev     3.350686                       # Number of instructions fetched each cycle (Total)
system.switch_cpus.fetch.rateDist::underflows            0      0.00%      0.00% # Number of instructions fetched each cycle (Total)
system.switch_cpus.fetch.rateDist::0        267152265     52.43%     52.43% # Number of instructions fetched each cycle (Total)
system.switch_cpus.fetch.rateDist::1         13234603      2.60%     55.02% # Number of instructions fetched each cycle (Total)
system.switch_cpus.fetch.rateDist::2         16179919      3.18%     58.20% # Number of instructions fetched each cycle (Total)
system.switch_cpus.fetch.rateDist::3         18518562      3.63%     61.83% # Number of instructions fetched each cycle (Total)
system.switch_cpus.fetch.rateDist::4         34211337      6.71%     68.55% # Number of instructions fetched each cycle (Total)
system.switch_cpus.fetch.rateDist::5         22313619      4.38%     72.92% # Number of instructions fetched each cycle (Total)
system.switch_cpus.fetch.rateDist::6         12579899      2.47%     75.39% # Number of instructions fetched each cycle (Total)
system.switch_cpus.fetch.rateDist::7         11045017      2.17%     77.56% # Number of instructions fetched each cycle (Total)
system.switch_cpus.fetch.rateDist::8        114347459     22.44%    100.00% # Number of instructions fetched each cycle (Total)
system.switch_cpus.fetch.rateDist::overflows            0      0.00%    100.00% # Number of instructions fetched each cycle (Total)
system.switch_cpus.fetch.rateDist::min_value            0                       # Number of instructions fetched each cycle (Total)
system.switch_cpus.fetch.rateDist::max_value            8                       # Number of instructions fetched each cycle (Total)
system.switch_cpus.fetch.rateDist::total    509582680                       # Number of instructions fetched each cycle (Total)
system.switch_cpus.fp_regfile_reads          65285048                       # number of floating regfile reads
system.switch_cpus.fp_regfile_writes         40923305                       # number of floating regfile writes
system.switch_cpus.idleCycles                 2439873                       # Total number of cycles that the CPU has spent unscheduled due to idling
system.switch_cpus.iew.branchMispredicts     10346044                       # Number of branch mispredicts detected at execute
system.switch_cpus.iew.exec_branches        117296670                       # Number of branches executed
system.switch_cpus.iew.exec_nop                     0                       # number of nop insts executed
system.switch_cpus.iew.exec_rate             2.030348                       # Inst execution rate
system.switch_cpus.iew.exec_refs            202975344                       # number of memory reference insts executed
system.switch_cpus.iew.exec_stores           70622137                       # Number of stores executed
system.switch_cpus.iew.exec_swp                     0                       # number of swp insts executed
system.switch_cpus.iew.iewBlockCycles        25033062                       # Number of cycles IEW is blocking
system.switch_cpus.iew.iewDispLoadInsts     135012676                       # Number of dispatched load instructions
system.switch_cpus.iew.iewDispNonSpecInsts        49001                       # Number of dispatched non-speculative instructions
system.switch_cpus.iew.iewDispSquashedInsts       765164                       # Number of squashed instructions skipped by dispatch
system.switch_cpus.iew.iewDispStoreInsts     77619658                       # Number of dispatched store instructions
system.switch_cpus.iew.iewDispatchedInsts   1124874118                       # Number of instructions dispatched to IQ
system.switch_cpus.iew.iewExecLoadInsts     132353207                       # Number of load instructions executed
system.switch_cpus.iew.iewExecSquashedInsts     16957523                       # Number of squashed instructions skipped in execute
system.switch_cpus.iew.iewExecutedInsts    1039583843                       # Number of executed instructions
system.switch_cpus.iew.iewIQFullEvents         205893                       # Number of times the IQ has become full, causing a stall
system.switch_cpus.iew.iewIdleCycles                0                       # Number of cycles IEW is idle
system.switch_cpus.iew.iewLSQFullEvents       3987667                       # Number of times the LSQ has become full, causing a stall
system.switch_cpus.iew.iewSquashCycles        8699341                       # Number of cycles IEW is squashing
system.switch_cpus.iew.iewUnblockCycles       4370635                       # Number of cycles IEW is unblocking
system.switch_cpus.iew.lsq.thread0.blockedLoads            0                       # Number of blocked loads due to partial load-store forwarding
system.switch_cpus.iew.lsq.thread0.cacheBlocked      1076387                       # Number of times an access to memory failed due to the cache being blocked
system.switch_cpus.iew.lsq.thread0.forwLoads     10480252                       # Number of loads that had data forwarded from stores
system.switch_cpus.iew.lsq.thread0.ignoredResponses        11105                       # Number of memory responses ignored because the instruction is squashed
system.switch_cpus.iew.lsq.thread0.invAddrLoads            0                       # Number of loads ignored due to an invalid address
system.switch_cpus.iew.lsq.thread0.invAddrSwpfs            0                       # Number of software prefetches ignored due to an invalid address
system.switch_cpus.iew.lsq.thread0.memOrderViolation         9257                       # Number of memory ordering violations
system.switch_cpus.iew.lsq.thread0.rescheduledLoads        46364                       # Number of loads that were rescheduled
system.switch_cpus.iew.lsq.thread0.squashedLoads     24124712                       # Number of loads squashed
system.switch_cpus.iew.lsq.thread0.squashedStores     12836651                       # Number of stores squashed
system.switch_cpus.iew.memOrderViolationEvents         9257                       # Number of memory order violations
system.switch_cpus.iew.predictedNotTakenIncorrect      9088850                       # Number of branches that were predicted not taken incorrectly
system.switch_cpus.iew.predictedTakenIncorrect      1257194                       # Number of branches that were predicted taken incorrectly
system.switch_cpus.iew.wb_consumers        1171545920                       # num instructions consuming a value
system.switch_cpus.iew.wb_count            1024846296                       # cumulative count of insts written-back
system.switch_cpus.iew.wb_fanout             0.619195                       # average fanout of values written-back
system.switch_cpus.iew.wb_producers         725415448                       # num instructions producing a value
system.switch_cpus.iew.wb_rate               2.001565                       # insts written-back per cycle
system.switch_cpus.iew.wb_sent             1028346083                       # cumulative count of insts sent to commit
system.switch_cpus.int_regfile_reads       1513639360                       # number of integer regfile reads
system.switch_cpus.int_regfile_writes       810523797                       # number of integer regfile writes
system.switch_cpus.ipc                       0.976519                       # IPC: Instructions Per Cycle
system.switch_cpus.ipc_total                 0.976519                       # IPC: Total IPC of All Threads
system.switch_cpus.iq.FU_type_0::No_OpClass      5531190      0.52%      0.52% # Type of FU issued
system.switch_cpus.iq.FU_type_0::IntAlu     808845827     76.56%     77.08% # Type of FU issued
system.switch_cpus.iq.FU_type_0::IntMult       910632      0.09%     77.17% # Type of FU issued
system.switch_cpus.iq.FU_type_0::IntDiv       7598107      0.72%     77.88% # Type of FU issued
system.switch_cpus.iq.FU_type_0::FloatAdd      8151002      0.77%     78.66% # Type of FU issued
system.switch_cpus.iq.FU_type_0::FloatCmp            0      0.00%     78.66% # Type of FU issued
system.switch_cpus.iq.FU_type_0::FloatCvt            0      0.00%     78.66% # Type of FU issued
system.switch_cpus.iq.FU_type_0::FloatMult            0      0.00%     78.66% # Type of FU issued
system.switch_cpus.iq.FU_type_0::FloatMultAcc            0      0.00%     78.66% # Type of FU issued
system.switch_cpus.iq.FU_type_0::FloatDiv            0      0.00%     78.66% # Type of FU issued
system.switch_cpus.iq.FU_type_0::FloatMisc            0      0.00%     78.66% # Type of FU issued
system.switch_cpus.iq.FU_type_0::FloatSqrt            0      0.00%     78.66% # Type of FU issued
system.switch_cpus.iq.FU_type_0::SimdAdd            0      0.00%     78.66% # Type of FU issued
system.switch_cpus.iq.FU_type_0::SimdAddAcc            0      0.00%     78.66% # Type of FU issued
system.switch_cpus.iq.FU_type_0::SimdAlu      1906286      0.18%     78.84% # Type of FU issued
system.switch_cpus.iq.FU_type_0::SimdCmp            0      0.00%     78.84% # Type of FU issued
system.switch_cpus.iq.FU_type_0::SimdCvt       409125      0.04%     78.88% # Type of FU issued
system.switch_cpus.iq.FU_type_0::SimdMisc       442581      0.04%     78.92% # Type of FU issued
system.switch_cpus.iq.FU_type_0::SimdMult            0      0.00%     78.92% # Type of FU issued
system.switch_cpus.iq.FU_type_0::SimdMultAcc            0      0.00%     78.92% # Type of FU issued
system.switch_cpus.iq.FU_type_0::SimdShift            0      0.00%     78.92% # Type of FU issued
system.switch_cpus.iq.FU_type_0::SimdShiftAcc            0      0.00%     78.92% # Type of FU issued
system.switch_cpus.iq.FU_type_0::SimdDiv            0      0.00%     78.92% # Type of FU issued
system.switch_cpus.iq.FU_type_0::SimdSqrt            0      0.00%     78.92% # Type of FU issued
system.switch_cpus.iq.FU_type_0::SimdFloatAdd      7040841      0.67%     79.58% # Type of FU issued
system.switch_cpus.iq.FU_type_0::SimdFloatAlu            0      0.00%     79.58% # Type of FU issued
system.switch_cpus.iq.FU_type_0::SimdFloatCmp            0      0.00%     79.58% # Type of FU issued
system.switch_cpus.iq.FU_type_0::SimdFloatCvt       894354      0.08%     79.67% # Type of FU issued
system.switch_cpus.iq.FU_type_0::SimdFloatDiv            0      0.00%     79.67% # Type of FU issued
system.switch_cpus.iq.FU_type_0::SimdFloatMisc            0      0.00%     79.67% # Type of FU issued
system.switch_cpus.iq.FU_type_0::SimdFloatMult      6424368      0.61%     80.28% # Type of FU issued
system.switch_cpus.iq.FU_type_0::SimdFloatMultAcc            0      0.00%     80.28% # Type of FU issued
system.switch_cpus.iq.FU_type_0::SimdFloatSqrt            0      0.00%     80.28% # Type of FU issued
system.switch_cpus.iq.FU_type_0::SimdReduceAdd            0      0.00%     80.28% # Type of FU issued
system.switch_cpus.iq.FU_type_0::SimdReduceAlu            0      0.00%     80.28% # Type of FU issued
system.switch_cpus.iq.FU_type_0::SimdReduceCmp            0      0.00%     80.28% # Type of FU issued
system.switch_cpus.iq.FU_type_0::SimdFloatReduceAdd            0      0.00%     80.28% # Type of FU issued
system.switch_cpus.iq.FU_type_0::SimdFloatReduceCmp            0      0.00%     80.28% # Type of FU issued
system.switch_cpus.iq.FU_type_0::SimdAes            0      0.00%     80.28% # Type of FU issued
system.switch_cpus.iq.FU_type_0::SimdAesMix            0      0.00%     80.28% # Type of FU issued
system.switch_cpus.iq.FU_type_0::SimdSha1Hash            0      0.00%     80.28% # Type of FU issued
system.switch_cpus.iq.FU_type_0::SimdSha1Hash2            0      0.00%     80.28% # Type of FU issued
system.switch_cpus.iq.FU_type_0::SimdSha256Hash            0      0.00%     80.28% # Type of FU issued
system.switch_cpus.iq.FU_type_0::SimdSha256Hash2            0      0.00%     80.28% # Type of FU issued
system.switch_cpus.iq.FU_type_0::SimdShaSigma2            0      0.00%     80.28% # Type of FU issued
system.switch_cpus.iq.FU_type_0::SimdShaSigma3            0      0.00%     80.28% # Type of FU issued
system.switch_cpus.iq.FU_type_0::SimdPredAlu            0      0.00%     80.28% # Type of FU issued
system.switch_cpus.iq.FU_type_0::MemRead    116539596     11.03%     91.31% # Type of FU issued
system.switch_cpus.iq.FU_type_0::MemWrite     63548273      6.01%     97.32% # Type of FU issued
system.switch_cpus.iq.FU_type_0::FloatMemRead     19170649      1.81%     99.14% # Type of FU issued
system.switch_cpus.iq.FU_type_0::FloatMemWrite      9128537      0.86%    100.00% # Type of FU issued
system.switch_cpus.iq.FU_type_0::IprAccess            0      0.00%    100.00% # Type of FU issued
system.switch_cpus.iq.FU_type_0::InstPrefetch            0      0.00%    100.00% # Type of FU issued
system.switch_cpus.iq.FU_type_0::total     1056541368                       # Type of FU issued
system.switch_cpus.iq.fp_alu_accesses        57877756                       # Number of floating point alu accesses
system.switch_cpus.iq.fp_inst_queue_reads    116166427                       # Number of floating instruction queue reads
system.switch_cpus.iq.fp_inst_queue_wakeup_accesses     50762482                       # Number of floating instruction queue wakeup accesses
system.switch_cpus.iq.fp_inst_queue_writes     59260915                       # Number of floating instruction queue writes
system.switch_cpus.iq.fu_busy_cnt                   0                       # FU busy when requested
system.switch_cpus.iq.fu_busy_rate                  0                       # FU busy rate (busy events/executed inst)
system.switch_cpus.iq.fu_full::No_OpClass            0                       # attempts to use FU when none available
system.switch_cpus.iq.fu_full::IntAlu               0                       # attempts to use FU when none available
system.switch_cpus.iq.fu_full::IntMult              0                       # attempts to use FU when none available
system.switch_cpus.iq.fu_full::IntDiv               0                       # attempts to use FU when none available
system.switch_cpus.iq.fu_full::FloatAdd             0                       # attempts to use FU when none available
system.switch_cpus.iq.fu_full::FloatCmp             0                       # attempts to use FU when none available
system.switch_cpus.iq.fu_full::FloatCvt             0                       # attempts to use FU when none available
system.switch_cpus.iq.fu_full::FloatMult            0                       # attempts to use FU when none available
system.switch_cpus.iq.fu_full::FloatMultAcc            0                       # attempts to use FU when none available
system.switch_cpus.iq.fu_full::FloatDiv             0                       # attempts to use FU when none available
system.switch_cpus.iq.fu_full::FloatMisc            0                       # attempts to use FU when none available
system.switch_cpus.iq.fu_full::FloatSqrt            0                       # attempts to use FU when none available
system.switch_cpus.iq.fu_full::SimdAdd              0                       # attempts to use FU when none available
system.switch_cpus.iq.fu_full::SimdAddAcc            0                       # attempts to use FU when none available
system.switch_cpus.iq.fu_full::SimdAlu              0                       # attempts to use FU when none available
system.switch_cpus.iq.fu_full::SimdCmp              0                       # attempts to use FU when none available
system.switch_cpus.iq.fu_full::SimdCvt              0                       # attempts to use FU when none available
system.switch_cpus.iq.fu_full::SimdMisc             0                       # attempts to use FU when none available
system.switch_cpus.iq.fu_full::SimdMult             0                       # attempts to use FU when none available
system.switch_cpus.iq.fu_full::SimdMultAcc            0                       # attempts to use FU when none available
system.switch_cpus.iq.fu_full::SimdShift            0                       # attempts to use FU when none available
system.switch_cpus.iq.fu_full::SimdShiftAcc            0                       # attempts to use FU when none available
system.switch_cpus.iq.fu_full::SimdDiv              0                       # attempts to use FU when none available
system.switch_cpus.iq.fu_full::SimdSqrt             0                       # attempts to use FU when none available
system.switch_cpus.iq.fu_full::SimdFloatAdd            0                       # attempts to use FU when none available
system.switch_cpus.iq.fu_full::SimdFloatAlu            0                       # attempts to use FU when none available
system.switch_cpus.iq.fu_full::SimdFloatCmp            0                       # attempts to use FU when none available
system.switch_cpus.iq.fu_full::SimdFloatCvt            0                       # attempts to use FU when none available
system.switch_cpus.iq.fu_full::SimdFloatDiv            0                       # attempts to use FU when none available
system.switch_cpus.iq.fu_full::SimdFloatMisc            0                       # attempts to use FU when none available
system.switch_cpus.iq.fu_full::SimdFloatMult            0                       # attempts to use FU when none available
system.switch_cpus.iq.fu_full::SimdFloatMultAcc            0                       # attempts to use FU when none available
system.switch_cpus.iq.fu_full::SimdFloatSqrt            0                       # attempts to use FU when none available
system.switch_cpus.iq.fu_full::SimdReduceAdd            0                       # attempts to use FU when none available
system.switch_cpus.iq.fu_full::SimdReduceAlu            0                       # attempts to use FU when none available
system.switch_cpus.iq.fu_full::SimdReduceCmp            0                       # attempts to use FU when none available
system.switch_cpus.iq.fu_full::SimdFloatReduceAdd            0                       # attempts to use FU when none available
system.switch_cpus.iq.fu_full::SimdFloatReduceCmp            0                       # attempts to use FU when none available
system.switch_cpus.iq.fu_full::SimdAes              0                       # attempts to use FU when none available
system.switch_cpus.iq.fu_full::SimdAesMix            0                       # attempts to use FU when none available
system.switch_cpus.iq.fu_full::SimdSha1Hash            0                       # attempts to use FU when none available
system.switch_cpus.iq.fu_full::SimdSha1Hash2            0                       # attempts to use FU when none available
system.switch_cpus.iq.fu_full::SimdSha256Hash            0                       # attempts to use FU when none available
system.switch_cpus.iq.fu_full::SimdSha256Hash2            0                       # attempts to use FU when none available
system.switch_cpus.iq.fu_full::SimdShaSigma2            0                       # attempts to use FU when none available
system.switch_cpus.iq.fu_full::SimdShaSigma3            0                       # attempts to use FU when none available
system.switch_cpus.iq.fu_full::SimdPredAlu            0                       # attempts to use FU when none available
system.switch_cpus.iq.fu_full::MemRead              0                       # attempts to use FU when none available
system.switch_cpus.iq.fu_full::MemWrite             0                       # attempts to use FU when none available
system.switch_cpus.iq.fu_full::FloatMemRead            0                       # attempts to use FU when none available
system.switch_cpus.iq.fu_full::FloatMemWrite            0                       # attempts to use FU when none available
system.switch_cpus.iq.fu_full::IprAccess            0                       # attempts to use FU when none available
system.switch_cpus.iq.fu_full::InstPrefetch            0                       # attempts to use FU when none available
system.switch_cpus.iq.int_alu_accesses      993132422                       # Number of integer alu accesses
system.switch_cpus.iq.int_inst_queue_reads   2523770680                       # Number of integer instruction queue reads
system.switch_cpus.iq.int_inst_queue_wakeup_accesses    974083814                       # Number of integer instruction queue wakeup accesses
system.switch_cpus.iq.int_inst_queue_writes   1255461621                       # Number of integer instruction queue writes
system.switch_cpus.iq.iqInstsAdded         1124766866                       # Number of instructions added to the IQ (excludes non-spec)
system.switch_cpus.iq.iqInstsIssued        1056541368                       # Number of instructions issued
system.switch_cpus.iq.iqNonSpecInstsAdded       107252                       # Number of non-speculative instructions added to the IQ
system.switch_cpus.iq.iqSquashedInstsExamined    189839386                       # Number of squashed instructions iterated over during squash; mainly for profiling
system.switch_cpus.iq.iqSquashedInstsIssued     17271693                       # Number of squashed instructions issued
system.switch_cpus.iq.iqSquashedNonSpecRemoved       106585                       # Number of squashed non-spec instructions that were removed
system.switch_cpus.iq.iqSquashedOperandsExamined    302424170                       # Number of squashed operands that are examined and possibly removed from graph
system.switch_cpus.iq.issued_per_cycle::samples    509582680                       # Number of insts issued each cycle
system.switch_cpus.iq.issued_per_cycle::mean     2.073346                       # Number of insts issued each cycle
system.switch_cpus.iq.issued_per_cycle::stdev     1.810756                       # Number of insts issued each cycle
system.switch_cpus.iq.issued_per_cycle::underflows            0      0.00%      0.00% # Number of insts issued each cycle
system.switch_cpus.iq.issued_per_cycle::0    195947907     38.45%     38.45% # Number of insts issued each cycle
system.switch_cpus.iq.issued_per_cycle::1     27227014      5.34%     43.80% # Number of insts issued each cycle
system.switch_cpus.iq.issued_per_cycle::2     32939811      6.46%     50.26% # Number of insts issued each cycle
system.switch_cpus.iq.issued_per_cycle::3     50437060      9.90%     60.16% # Number of insts issued each cycle
system.switch_cpus.iq.issued_per_cycle::4    203030888     39.84%    100.00% # Number of insts issued each cycle
system.switch_cpus.iq.issued_per_cycle::overflows            0      0.00%    100.00% # Number of insts issued each cycle
system.switch_cpus.iq.issued_per_cycle::min_value            0                       # Number of insts issued each cycle
system.switch_cpus.iq.issued_per_cycle::max_value            4                       # Number of insts issued each cycle
system.switch_cpus.iq.issued_per_cycle::total    509582680                       # Number of insts issued each cycle
system.switch_cpus.iq.rate                   2.063466                       # Inst issue rate
system.switch_cpus.iq.vec_alu_accesses              0                       # Number of vector alu accesses
system.switch_cpus.iq.vec_inst_queue_reads            0                       # Number of vector instruction queue reads
system.switch_cpus.iq.vec_inst_queue_wakeup_accesses            0                       # Number of vector instruction queue wakeup accesses
system.switch_cpus.iq.vec_inst_queue_writes            0                       # Number of vector instruction queue writes
system.switch_cpus.itb.rdAccesses                   0                       # TLB accesses on read requests
system.switch_cpus.itb.rdMisses                     0                       # TLB misses on read requests
system.switch_cpus.itb.wrAccesses           109727118                       # TLB accesses on write requests
system.switch_cpus.itb.wrMisses                  2088                       # TLB misses on write requests
system.switch_cpus.memDep0.conflictingLoads      3862276                       # Number of conflicting loads.
system.switch_cpus.memDep0.conflictingStores      2701760                       # Number of conflicting stores.
system.switch_cpus.memDep0.insertedLoads    135012676                       # Number of loads inserted to the mem dependence unit.
system.switch_cpus.memDep0.insertedStores     77619658                       # Number of stores inserted to the mem dependence unit.
system.switch_cpus.misc_regfile_reads       441499610                       # number of misc regfile reads
system.switch_cpus.numCycles                512022553                       # number of cpu cycles simulated
system.switch_cpus.numWorkItemsCompleted            0                       # number of work items this cpu completed
system.switch_cpus.numWorkItemsStarted              0                       # number of work items this cpu started
system.switch_cpus.rename.BlockCycles        30550177                       # Number of cycles rename is blocking
system.switch_cpus.rename.CommittedMaps    1067129663                       # Number of HB maps that are committed
system.switch_cpus.rename.FullRegisterEvents            1                       # Number of times there has been no free registers
system.switch_cpus.rename.IQFullEvents        2414368                       # Number of times rename has blocked due to IQ full
system.switch_cpus.rename.IdleCycles         53322792                       # Number of cycles rename is idle
system.switch_cpus.rename.LQFullEvents         112083                       # Number of times rename has blocked due to LQ full
system.switch_cpus.rename.ROBFullEvents         20955                       # Number of times rename has blocked due to ROB full
system.switch_cpus.rename.RenameLookups    3063541204                       # Number of register rename lookups that rename has made
system.switch_cpus.rename.RenamedInsts     1188042984                       # Number of instructions processed by rename
system.switch_cpus.rename.RenamedOperands   1361982690                       # Number of destination operands rename has renamed
system.switch_cpus.rename.RunCycles         302734801                       # Number of cycles rename is running
system.switch_cpus.rename.SQFullEvents      110436804                       # Number of times rename has blocked due to SQ full
system.switch_cpus.rename.SquashCycles        8699341                       # Number of cycles rename is squashing
system.switch_cpus.rename.UnblockCycles     114198013                       # Number of cycles rename is unblocking
system.switch_cpus.rename.UndoneMaps        294852925                       # Number of HB maps that are undone due to squashing
system.switch_cpus.rename.fp_rename_lookups     68337947                       # Number of floating rename lookups
system.switch_cpus.rename.int_rename_lookups   1772457068                       # Number of integer rename lookups
system.switch_cpus.rename.serializeStallCycles        77550                       # count of cycles rename stalled for serializing inst
system.switch_cpus.rename.serializingInsts         6131                       # count of serializing insts renamed
system.switch_cpus.rename.skidInsts          15669533                       # count of insts added to the skid buffer
system.switch_cpus.rename.tempSerializingInsts         6478                       # count of temporary serializing insts renamed
system.switch_cpus.rob.rob_reads           1562686522                       # The number of ROB reads
system.switch_cpus.rob.rob_writes          2273048919                       # The number of ROB writes
system.switch_cpus.timesIdled                  267034                       # Number of times that the entire CPU went into an idle state and unscheduled itself
system.tol2bus.snoop_filter.hit_multi_requests          553                       # Number of requests hitting in the snoop filter with multiple (>1) holders of the requested data.
system.tol2bus.snoop_filter.hit_multi_snoops           15                       # Number of snoops hitting in the snoop filter with multiple (>1) holders of the requested data.
system.tol2bus.snoop_filter.hit_single_requests      1704672                       # Number of requests hitting in the snoop filter with a single holder of the requested data.
system.tol2bus.snoop_filter.hit_single_snoops         9133                       # Number of snoops hitting in the snoop filter with a single holder of the requested data.
system.tol2bus.snoop_filter.tot_requests      3415757                       # Total number of requests made to the snoop filter.
system.tol2bus.snoop_filter.tot_snoops           9148                       # Total number of snoops made to the snoop filter.
system.membus.pwrStateResidencyTicks::UNDEFINED 1393077765000                       # Cumulative time (in ticks) in various power states
system.membus.trans_dist::ReadResp              44437                       # Transaction distribution
system.membus.trans_dist::WritebackDirty       670477                       # Transaction distribution
system.membus.trans_dist::CleanEvict            36817                       # Transaction distribution
system.membus.trans_dist::UpgradeReq              225                       # Transaction distribution
system.membus.trans_dist::ReadExReq            662886                       # Transaction distribution
system.membus.trans_dist::ReadExResp           662886                       # Transaction distribution
system.membus.trans_dist::ReadSharedReq         44437                       # Transaction distribution
system.membus.pkt_count_system.l2.mem_side::system.mem_ctrls.port      2122165                       # Packet count per connected master and slave (bytes)
system.membus.pkt_count_system.l2.mem_side::total      2122165                       # Packet count per connected master and slave (bytes)
system.membus.pkt_count::total                2122165                       # Packet count per connected master and slave (bytes)
system.membus.pkt_size_system.l2.mem_side::system.mem_ctrls.port     88179200                       # Cumulative packet size per connected master and slave (bytes)
system.membus.pkt_size_system.l2.mem_side::total     88179200                       # Cumulative packet size per connected master and slave (bytes)
system.membus.pkt_size::total                88179200                       # Cumulative packet size per connected master and slave (bytes)
system.membus.snoops                                0                       # Total snoops (count)
system.membus.snoopTraffic                          0                       # Total snoop traffic (bytes)
system.membus.snoop_fanout::samples            707548                       # Request fanout histogram
system.membus.snoop_fanout::mean                    0                       # Request fanout histogram
system.membus.snoop_fanout::stdev                   0                       # Request fanout histogram
system.membus.snoop_fanout::underflows              0      0.00%      0.00% # Request fanout histogram
system.membus.snoop_fanout::0                  707548    100.00%    100.00% # Request fanout histogram
system.membus.snoop_fanout::1                       0      0.00%    100.00% # Request fanout histogram
system.membus.snoop_fanout::overflows               0      0.00%    100.00% # Request fanout histogram
system.membus.snoop_fanout::min_value               0                       # Request fanout histogram
system.membus.snoop_fanout::max_value               0                       # Request fanout histogram
system.membus.snoop_fanout::total              707548                       # Request fanout histogram
system.membus.reqLayer2.occupancy          4387262612                       # Layer occupancy (ticks)
system.membus.reqLayer2.utilization               1.7                       # Layer utilization (%)
system.membus.respLayer1.occupancy         3734679264                       # Layer occupancy (ticks)
system.membus.respLayer1.utilization              1.5                       # Layer utilization (%)
system.switch_cpus.pwrStateResidencyTicks::OFF 1393077765000                       # Cumulative time (in ticks) in various power states
system.switch_cpus.dtb.walker.pwrStateResidencyTicks::UNDEFINED 1393077765000                       # Cumulative time (in ticks) in various power states
system.switch_cpus.itb.walker.pwrStateResidencyTicks::UNDEFINED 1393077765000                       # Cumulative time (in ticks) in various power states
system.tol2bus.pwrStateResidencyTicks::UNDEFINED 1393077765000                       # Cumulative time (in ticks) in various power states
system.tol2bus.trans_dist::ReadResp            989250                       # Transaction distribution
system.tol2bus.trans_dist::WritebackDirty      1487420                       # Transaction distribution
system.tol2bus.trans_dist::WritebackClean       553233                       # Transaction distribution
system.tol2bus.trans_dist::CleanEvict          376191                       # Transaction distribution
system.tol2bus.trans_dist::UpgradeReq             226                       # Transaction distribution
system.tol2bus.trans_dist::UpgradeResp            226                       # Transaction distribution
system.tol2bus.trans_dist::ReadExReq           712342                       # Transaction distribution
system.tol2bus.trans_dist::ReadExResp          712342                       # Transaction distribution
system.tol2bus.trans_dist::ReadCleanReq        553459                       # Transaction distribution
system.tol2bus.trans_dist::ReadSharedReq       435792                       # Transaction distribution
system.tol2bus.pkt_count_system.cpu.icache.mem_side::system.l2.cpu_side      1659924                       # Packet count per connected master and slave (bytes)
system.tol2bus.pkt_count_system.cpu.dcache.mem_side::system.l2.cpu_side      3444852                       # Packet count per connected master and slave (bytes)
system.tol2bus.pkt_count::total               5104776                       # Packet count per connected master and slave (bytes)
system.tol2bus.pkt_size_system.cpu.icache.mem_side::system.l2.cpu_side     70813760                       # Cumulative packet size per connected master and slave (bytes)
system.tol2bus.pkt_size_system.cpu.dcache.mem_side::system.l2.cpu_side    125764864                       # Cumulative packet size per connected master and slave (bytes)
system.tol2bus.pkt_size::total              196578624                       # Cumulative packet size per connected master and slave (bytes)
system.tol2bus.snoops                          715705                       # Total snoops (count)
system.tol2bus.snoopTraffic                  42925056                       # Total snoop traffic (bytes)
system.tol2bus.snoop_fanout::samples          2426570                       # Request fanout histogram
system.tol2bus.snoop_fanout::mean            0.004007                       # Request fanout histogram
system.tol2bus.snoop_fanout::stdev           0.063271                       # Request fanout histogram
system.tol2bus.snoop_fanout::underflows             0      0.00%      0.00% # Request fanout histogram
system.tol2bus.snoop_fanout::0                2416862     99.60%     99.60% # Request fanout histogram
system.tol2bus.snoop_fanout::1                   9693      0.40%    100.00% # Request fanout histogram
system.tol2bus.snoop_fanout::2                     15      0.00%    100.00% # Request fanout histogram
system.tol2bus.snoop_fanout::3                      0      0.00%    100.00% # Request fanout histogram
system.tol2bus.snoop_fanout::4                      0      0.00%    100.00% # Request fanout histogram
system.tol2bus.snoop_fanout::overflows              0      0.00%    100.00% # Request fanout histogram
system.tol2bus.snoop_fanout::min_value              0                       # Request fanout histogram
system.tol2bus.snoop_fanout::max_value              2                       # Request fanout histogram
system.tol2bus.snoop_fanout::total            2426570                       # Request fanout histogram
system.tol2bus.reqLayer0.occupancy         3084313454                       # Layer occupancy (ticks)
system.tol2bus.reqLayer0.utilization              1.2                       # Layer utilization (%)
system.tol2bus.respLayer1.occupancy        1722378867                       # Layer occupancy (ticks)
system.tol2bus.respLayer1.utilization             0.7                       # Layer utilization (%)
system.tol2bus.respLayer0.occupancy         830314256                       # Layer occupancy (ticks)
system.tol2bus.respLayer0.utilization             0.3                       # Layer utilization (%)
system.voltage_domain.voltage                       1                       # Voltage in Volts
system.clk_domain.clock                          1000                       # Clock period in ticks
system.l2.pwrStateResidencyTicks::UNDEFINED 1393077765000                       # Cumulative time (in ticks) in various power states
system.l2.demand_hits::.switch_cpus.inst       550232                       # number of demand (read+write) hits
system.l2.demand_hits::.switch_cpus.data       443811                       # number of demand (read+write) hits
system.l2.demand_hits::total                   994043                       # number of demand (read+write) hits
system.l2.overall_hits::.switch_cpus.inst       550232                       # number of overall hits
system.l2.overall_hits::.switch_cpus.data       443811                       # number of overall hits
system.l2.overall_hits::total                  994043                       # number of overall hits
system.l2.demand_misses::.switch_cpus.inst         3000                       # number of demand (read+write) misses
system.l2.demand_misses::.switch_cpus.data       704323                       # number of demand (read+write) misses
system.l2.demand_misses::total                 707323                       # number of demand (read+write) misses
system.l2.overall_misses::.switch_cpus.inst         3000                       # number of overall misses
system.l2.overall_misses::.switch_cpus.data       704323                       # number of overall misses
system.l2.overall_misses::total                707323                       # number of overall misses
system.l2.demand_miss_latency::.switch_cpus.inst    262481444                       # number of demand (read+write) miss cycles
system.l2.demand_miss_latency::.switch_cpus.data  56518181959                       # number of demand (read+write) miss cycles
system.l2.demand_miss_latency::total      56780663403                       # number of demand (read+write) miss cycles
system.l2.overall_miss_latency::.switch_cpus.inst    262481444                       # number of overall miss cycles
system.l2.overall_miss_latency::.switch_cpus.data  56518181959                       # number of overall miss cycles
system.l2.overall_miss_latency::total     56780663403                       # number of overall miss cycles
system.l2.demand_accesses::.switch_cpus.inst       553232                       # number of demand (read+write) accesses
system.l2.demand_accesses::.switch_cpus.data      1148134                       # number of demand (read+write) accesses
system.l2.demand_accesses::total              1701366                       # number of demand (read+write) accesses
system.l2.overall_accesses::.switch_cpus.inst       553232                       # number of overall (read+write) accesses
system.l2.overall_accesses::.switch_cpus.data      1148134                       # number of overall (read+write) accesses
system.l2.overall_accesses::total             1701366                       # number of overall (read+write) accesses
system.l2.demand_miss_rate::.switch_cpus.inst     0.005423                       # miss rate for demand accesses
system.l2.demand_miss_rate::.switch_cpus.data     0.613450                       # miss rate for demand accesses
system.l2.demand_miss_rate::total            0.415738                       # miss rate for demand accesses
system.l2.overall_miss_rate::.switch_cpus.inst     0.005423                       # miss rate for overall accesses
system.l2.overall_miss_rate::.switch_cpus.data     0.613450                       # miss rate for overall accesses
system.l2.overall_miss_rate::total           0.415738                       # miss rate for overall accesses
system.l2.demand_avg_miss_latency::.switch_cpus.inst 87493.814667                       # average overall miss latency
system.l2.demand_avg_miss_latency::.switch_cpus.data 80244.691653                       # average overall miss latency
system.l2.demand_avg_miss_latency::total 80275.437676                       # average overall miss latency
system.l2.overall_avg_miss_latency::.switch_cpus.inst 87493.814667                       # average overall miss latency
system.l2.overall_avg_miss_latency::.switch_cpus.data 80244.691653                       # average overall miss latency
system.l2.overall_avg_miss_latency::total 80275.437676                       # average overall miss latency
system.l2.blocked_cycles::no_mshrs           99420771                       # number of cycles access was blocked
system.l2.blocked_cycles::no_targets                0                       # number of cycles access was blocked
system.l2.blocked::no_mshrs                    707548                       # number of cycles access was blocked
system.l2.blocked::no_targets                       0                       # number of cycles access was blocked
system.l2.avg_blocked_cycles::no_mshrs     140.514525                       # average number of cycles each access was blocked
system.l2.avg_blocked_cycles::no_targets          nan                       # average number of cycles each access was blocked
system.l2.writebacks::.writebacks              670477                       # number of writebacks
system.l2.writebacks::total                    670477                       # number of writebacks
system.l2.demand_mshr_misses::.switch_cpus.inst         3000                       # number of demand (read+write) MSHR misses
system.l2.demand_mshr_misses::.switch_cpus.data       704323                       # number of demand (read+write) MSHR misses
system.l2.demand_mshr_misses::total            707323                       # number of demand (read+write) MSHR misses
system.l2.overall_mshr_misses::.switch_cpus.inst         3000                       # number of overall MSHR misses
system.l2.overall_mshr_misses::.switch_cpus.data       704323                       # number of overall MSHR misses
system.l2.overall_mshr_misses::total           707323                       # number of overall MSHR misses
system.l2.demand_mshr_miss_latency::.switch_cpus.inst    232481444                       # number of demand (read+write) MSHR miss cycles
system.l2.demand_mshr_miss_latency::.switch_cpus.data  49474951959                       # number of demand (read+write) MSHR miss cycles
system.l2.demand_mshr_miss_latency::total  49707433403                       # number of demand (read+write) MSHR miss cycles
system.l2.overall_mshr_miss_latency::.switch_cpus.inst    232481444                       # number of overall MSHR miss cycles
system.l2.overall_mshr_miss_latency::.switch_cpus.data  49474951959                       # number of overall MSHR miss cycles
system.l2.overall_mshr_miss_latency::total  49707433403                       # number of overall MSHR miss cycles
system.l2.demand_mshr_miss_rate::.switch_cpus.inst     0.005423                       # mshr miss rate for demand accesses
system.l2.demand_mshr_miss_rate::.switch_cpus.data     0.613450                       # mshr miss rate for demand accesses
system.l2.demand_mshr_miss_rate::total       0.415738                       # mshr miss rate for demand accesses
system.l2.overall_mshr_miss_rate::.switch_cpus.inst     0.005423                       # mshr miss rate for overall accesses
system.l2.overall_mshr_miss_rate::.switch_cpus.data     0.613450                       # mshr miss rate for overall accesses
system.l2.overall_mshr_miss_rate::total      0.415738                       # mshr miss rate for overall accesses
system.l2.demand_avg_mshr_miss_latency::.switch_cpus.inst 77493.814667                       # average overall mshr miss latency
system.l2.demand_avg_mshr_miss_latency::.switch_cpus.data 70244.691653                       # average overall mshr miss latency
system.l2.demand_avg_mshr_miss_latency::total 70275.437676                       # average overall mshr miss latency
system.l2.overall_avg_mshr_miss_latency::.switch_cpus.inst 77493.814667                       # average overall mshr miss latency
system.l2.overall_avg_mshr_miss_latency::.switch_cpus.data 70244.691653                       # average overall mshr miss latency
system.l2.overall_avg_mshr_miss_latency::total 70275.437676                       # average overall mshr miss latency
system.l2.replacements                         715478                       # number of replacements
system.l2.WritebackDirty_hits::.writebacks       816943                       # number of WritebackDirty hits
system.l2.WritebackDirty_hits::total           816943                       # number of WritebackDirty hits
system.l2.WritebackDirty_accesses::.writebacks       816943                       # number of WritebackDirty accesses(hits+misses)
system.l2.WritebackDirty_accesses::total       816943                       # number of WritebackDirty accesses(hits+misses)
system.l2.WritebackClean_hits::.writebacks       553232                       # number of WritebackClean hits
system.l2.WritebackClean_hits::total           553232                       # number of WritebackClean hits
system.l2.WritebackClean_accesses::.writebacks       553232                       # number of WritebackClean accesses(hits+misses)
system.l2.WritebackClean_accesses::total       553232                       # number of WritebackClean accesses(hits+misses)
system.l2.CleanEvict_mshr_misses::.writebacks          955                       # number of CleanEvict MSHR misses
system.l2.CleanEvict_mshr_misses::total           955                       # number of CleanEvict MSHR misses
system.l2.CleanEvict_mshr_miss_rate::.writebacks          inf                       # mshr miss rate for CleanEvict accesses
system.l2.CleanEvict_mshr_miss_rate::total          inf                       # mshr miss rate for CleanEvict accesses
system.l2.UpgradeReq_hits::.switch_cpus.data            1                       # number of UpgradeReq hits
system.l2.UpgradeReq_hits::total                    1                       # number of UpgradeReq hits
system.l2.UpgradeReq_misses::.switch_cpus.data          225                       # number of UpgradeReq misses
system.l2.UpgradeReq_misses::total                225                       # number of UpgradeReq misses
system.l2.UpgradeReq_miss_latency::.switch_cpus.data        31999                       # number of UpgradeReq miss cycles
system.l2.UpgradeReq_miss_latency::total        31999                       # number of UpgradeReq miss cycles
system.l2.UpgradeReq_accesses::.switch_cpus.data          226                       # number of UpgradeReq accesses(hits+misses)
system.l2.UpgradeReq_accesses::total              226                       # number of UpgradeReq accesses(hits+misses)
system.l2.UpgradeReq_miss_rate::.switch_cpus.data     0.995575                       # miss rate for UpgradeReq accesses
system.l2.UpgradeReq_miss_rate::total        0.995575                       # miss rate for UpgradeReq accesses
system.l2.UpgradeReq_avg_miss_latency::.switch_cpus.data   142.217778                       # average UpgradeReq miss latency
system.l2.UpgradeReq_avg_miss_latency::total   142.217778                       # average UpgradeReq miss latency
system.l2.UpgradeReq_mshr_misses::.switch_cpus.data          225                       # number of UpgradeReq MSHR misses
system.l2.UpgradeReq_mshr_misses::total           225                       # number of UpgradeReq MSHR misses
system.l2.UpgradeReq_mshr_miss_latency::.switch_cpus.data      4496500                       # number of UpgradeReq MSHR miss cycles
system.l2.UpgradeReq_mshr_miss_latency::total      4496500                       # number of UpgradeReq MSHR miss cycles
system.l2.UpgradeReq_mshr_miss_rate::.switch_cpus.data     0.995575                       # mshr miss rate for UpgradeReq accesses
system.l2.UpgradeReq_mshr_miss_rate::total     0.995575                       # mshr miss rate for UpgradeReq accesses
system.l2.UpgradeReq_avg_mshr_miss_latency::.switch_cpus.data 19984.444444                       # average UpgradeReq mshr miss latency
system.l2.UpgradeReq_avg_mshr_miss_latency::total 19984.444444                       # average UpgradeReq mshr miss latency
system.l2.ReadExReq_hits::.switch_cpus.data        49456                       # number of ReadExReq hits
system.l2.ReadExReq_hits::total                 49456                       # number of ReadExReq hits
system.l2.ReadExReq_misses::.switch_cpus.data       662886                       # number of ReadExReq misses
system.l2.ReadExReq_misses::total              662886                       # number of ReadExReq misses
system.l2.ReadExReq_miss_latency::.switch_cpus.data  53158350875                       # number of ReadExReq miss cycles
system.l2.ReadExReq_miss_latency::total   53158350875                       # number of ReadExReq miss cycles
system.l2.ReadExReq_accesses::.switch_cpus.data       712342                       # number of ReadExReq accesses(hits+misses)
system.l2.ReadExReq_accesses::total            712342                       # number of ReadExReq accesses(hits+misses)
system.l2.ReadExReq_miss_rate::.switch_cpus.data     0.930573                       # miss rate for ReadExReq accesses
system.l2.ReadExReq_miss_rate::total         0.930573                       # miss rate for ReadExReq accesses
system.l2.ReadExReq_avg_miss_latency::.switch_cpus.data 80192.296828                       # average ReadExReq miss latency
system.l2.ReadExReq_avg_miss_latency::total 80192.296828                       # average ReadExReq miss latency
system.l2.ReadExReq_mshr_misses::.switch_cpus.data       662886                       # number of ReadExReq MSHR misses
system.l2.ReadExReq_mshr_misses::total         662886                       # number of ReadExReq MSHR misses
system.l2.ReadExReq_mshr_miss_latency::.switch_cpus.data  46529490875                       # number of ReadExReq MSHR miss cycles
system.l2.ReadExReq_mshr_miss_latency::total  46529490875                       # number of ReadExReq MSHR miss cycles
system.l2.ReadExReq_mshr_miss_rate::.switch_cpus.data     0.930573                       # mshr miss rate for ReadExReq accesses
system.l2.ReadExReq_mshr_miss_rate::total     0.930573                       # mshr miss rate for ReadExReq accesses
system.l2.ReadExReq_avg_mshr_miss_latency::.switch_cpus.data 70192.296828                       # average ReadExReq mshr miss latency
system.l2.ReadExReq_avg_mshr_miss_latency::total 70192.296828                       # average ReadExReq mshr miss latency
system.l2.ReadCleanReq_hits::.switch_cpus.inst       550232                       # number of ReadCleanReq hits
system.l2.ReadCleanReq_hits::total             550232                       # number of ReadCleanReq hits
system.l2.ReadCleanReq_misses::.switch_cpus.inst         3000                       # number of ReadCleanReq misses
system.l2.ReadCleanReq_misses::total             3000                       # number of ReadCleanReq misses
system.l2.ReadCleanReq_miss_latency::.switch_cpus.inst    262481444                       # number of ReadCleanReq miss cycles
system.l2.ReadCleanReq_miss_latency::total    262481444                       # number of ReadCleanReq miss cycles
[...]
system.cpu.itb_walker_cache.tags.warmup_cycle            0                       # Cycle when the warmup percentage was hit.
system.cpu.itb_walker_cache.tags.tag_accesses            0                       # Number of tag accesses
system.cpu.itb_walker_cache.tags.data_accesses            0                       # Number of data accesses
system.cpu.itb.walker.pwrStateResidencyTicks::UNDEFINED 1393077765000                       # Cumulative time (in ticks) in various power states
system.cpu.dtb_walker_cache.pwrStateResidencyTicks::UNDEFINED 1393077765000                       # Cumulative time (in ticks) in various power states
system.cpu.dtb_walker_cache.blocked_cycles::no_mshrs            0                       # number of cycles access was blocked
system.cpu.dtb_walker_cache.blocked_cycles::no_targets            0                       # number of cycles access was blocked
system.cpu.dtb_walker_cache.blocked::no_mshrs            0                       # number of cycles access was blocked
system.cpu.dtb_walker_cache.blocked::no_targets            0                       # number of cycles access was blocked
system.cpu.dtb_walker_cache.avg_blocked_cycles::no_mshrs          nan                       # average number of cycles each access was blocked
system.cpu.dtb_walker_cache.avg_blocked_cycles::no_targets          nan                       # average number of cycles each access was blocked
system.cpu.dtb_walker_cache.replacements            0                       # number of replacements
system.cpu.dtb_walker_cache.tags.pwrStateResidencyTicks::UNDEFINED 1393077765000                       # Cumulative time (in ticks) in various power states
system.cpu.dtb_walker_cache.tags.tagsinuse            0                       # Cycle average of tags in use
system.cpu.dtb_walker_cache.tags.total_refs            0                       # Total number of references to valid blocks.
system.cpu.dtb_walker_cache.tags.sampled_refs            0                       # Sample count of references to valid blocks.
system.cpu.dtb_walker_cache.tags.avg_refs          nan                       # Average number of references to valid blocks.
system.cpu.dtb_walker_cache.tags.warmup_cycle            0                       # Cycle when the warmup percentage was hit.
system.cpu.dtb_walker_cache.tags.tag_accesses            0                       # Number of tag accesses
system.cpu.dtb_walker_cache.tags.data_accesses            0                       # Number of data accesses
system.cpu.dcache.pwrStateResidencyTicks::UNDEFINED 1393077765000                       # Cumulative time (in ticks) in various power states
system.cpu.dcache.demand_hits::.cpu.data    370773184                       # number of demand (read+write) hits
system.cpu.dcache.demand_hits::.switch_cpus.data    177345944                       # number of demand (read+write) hits
system.cpu.dcache.demand_hits::total        548119128                       # number of demand (read+write) hits
system.cpu.dcache.overall_hits::.cpu.data    370773407                       # number of overall hits
system.cpu.dcache.overall_hits::.switch_cpus.data    177713788                       # number of overall hits
system.cpu.dcache.overall_hits::total       548487195                       # number of overall hits
system.cpu.dcache.demand_misses::.cpu.data       180356                       # number of demand (read+write) misses
system.cpu.dcache.demand_misses::.switch_cpus.data      1131632                       # number of demand (read+write) misses
system.cpu.dcache.demand_misses::total        1311988                       # number of demand (read+write) misses
system.cpu.dcache.overall_misses::.cpu.data       180563                       # number of overall misses
system.cpu.dcache.overall_misses::.switch_cpus.data      1148360                       # number of overall misses
system.cpu.dcache.overall_misses::total       1328923                       # number of overall misses
system.cpu.dcache.demand_miss_latency::.switch_cpus.data  63084780899                       # number of demand (read+write) miss cycles
system.cpu.dcache.demand_miss_latency::total  63084780899                       # number of demand (read+write) miss cycles
system.cpu.dcache.overall_miss_latency::.switch_cpus.data  63084780899                       # number of overall miss cycles
system.cpu.dcache.overall_miss_latency::total  63084780899                       # number of overall miss cycles
system.cpu.dcache.demand_accesses::.cpu.data    370953540                       # number of demand (read+write) accesses
system.cpu.dcache.demand_accesses::.switch_cpus.data    178477576                       # number of demand (read+write) accesses
system.cpu.dcache.demand_accesses::total    549431116                       # number of demand (read+write) accesses
system.cpu.dcache.overall_accesses::.cpu.data    370953970                       # number of overall (read+write) accesses
system.cpu.dcache.overall_accesses::.switch_cpus.data    178862148                       # number of overall (read+write) accesses
system.cpu.dcache.overall_accesses::total    549816118                       # number of overall (read+write) accesses
system.cpu.dcache.demand_miss_rate::.cpu.data     0.000486                       # miss rate for demand accesses
system.cpu.dcache.demand_miss_rate::.switch_cpus.data     0.006340                       # miss rate for demand accesses
system.cpu.dcache.demand_miss_rate::total     0.002388                       # miss rate for demand accesses
system.cpu.dcache.overall_miss_rate::.cpu.data     0.000487                       # miss rate for overall accesses
system.cpu.dcache.overall_miss_rate::.switch_cpus.data     0.006420                       # miss rate for overall accesses
system.cpu.dcache.overall_miss_rate::total     0.002417                       # miss rate for overall accesses
system.cpu.dcache.demand_avg_miss_latency::.switch_cpus.data 55746.727646                       # average overall miss latency
system.cpu.dcache.demand_avg_miss_latency::total 48083.352057                       # average overall miss latency
system.cpu.dcache.overall_avg_miss_latency::.switch_cpus.data 54934.672837                       # average overall miss latency
system.cpu.dcache.overall_avg_miss_latency::total 47470.606573                       # average overall miss latency
system.cpu.dcache.blocked_cycles::no_mshrs    126025010                       # number of cycles access was blocked
system.cpu.dcache.blocked_cycles::no_targets            0                       # number of cycles access was blocked
system.cpu.dcache.blocked::no_mshrs           1148360                       # number of cycles access was blocked
system.cpu.dcache.blocked::no_targets               0                       # number of cycles access was blocked
system.cpu.dcache.avg_blocked_cycles::no_mshrs   109.743469                       # average number of cycles each access was blocked
system.cpu.dcache.avg_blocked_cycles::no_targets          nan                       # average number of cycles each access was blocked
system.cpu.dcache.writebacks::.writebacks       972325                       # number of writebacks
system.cpu.dcache.writebacks::total            972325                       # number of writebacks
system.cpu.dcache.demand_mshr_misses::.switch_cpus.data      1131632                       # number of demand (read+write) MSHR misses
system.cpu.dcache.demand_mshr_misses::total      1131632                       # number of demand (read+write) MSHR misses
system.cpu.dcache.overall_mshr_misses::.switch_cpus.data      1148360                       # number of overall MSHR misses
system.cpu.dcache.overall_mshr_misses::total      1148360                       # number of overall MSHR misses
system.cpu.dcache.demand_mshr_miss_latency::.switch_cpus.data  61953149899                       # number of demand (read+write) MSHR miss cycles
system.cpu.dcache.demand_mshr_miss_latency::total  61953149899                       # number of demand (read+write) MSHR miss cycles
system.cpu.dcache.overall_mshr_miss_latency::.switch_cpus.data  63018541399                       # number of overall MSHR miss cycles
system.cpu.dcache.overall_mshr_miss_latency::total  63018541399                       # number of overall MSHR miss cycles
system.cpu.dcache.demand_mshr_miss_rate::.switch_cpus.data     0.006340                       # mshr miss rate for demand accesses
system.cpu.dcache.demand_mshr_miss_rate::total     0.002060                       # mshr miss rate for demand accesses
system.cpu.dcache.overall_mshr_miss_rate::.switch_cpus.data     0.006420                       # mshr miss rate for overall accesses
system.cpu.dcache.overall_mshr_miss_rate::total     0.002089                       # mshr miss rate for overall accesses
system.cpu.dcache.demand_avg_mshr_miss_latency::.switch_cpus.data 54746.728529                       # average overall mshr miss latency
system.cpu.dcache.demand_avg_mshr_miss_latency::total 54746.728529                       # average overall mshr miss latency
system.cpu.dcache.overall_avg_mshr_miss_latency::.switch_cpus.data 54876.991012                       # average overall mshr miss latency
system.cpu.dcache.overall_avg_mshr_miss_latency::total 54876.991012                       # average overall mshr miss latency
system.cpu.dcache.replacements                1328184                       # number of replacements
system.cpu.dcache.ReadReq_hits::.cpu.data    226634092                       # number of ReadReq hits
system.cpu.dcache.ReadReq_hits::.switch_cpus.data    113275491                       # number of ReadReq hits
system.cpu.dcache.ReadReq_hits::total       339909583                       # number of ReadReq hits
system.cpu.dcache.ReadReq_misses::.cpu.data        30418                       # number of ReadReq misses
system.cpu.dcache.ReadReq_misses::.switch_cpus.data       419064                       # number of ReadReq misses
system.cpu.dcache.ReadReq_misses::total        449482                       # number of ReadReq misses
system.cpu.dcache.ReadReq_miss_latency::.switch_cpus.data   7561017500                       # number of ReadReq miss cycles
system.cpu.dcache.ReadReq_miss_latency::total   7561017500                       # number of ReadReq miss cycles
system.cpu.dcache.ReadReq_accesses::.cpu.data    226664510                       # number of ReadReq accesses(hits+misses)
system.cpu.dcache.ReadReq_accesses::.switch_cpus.data    113694555                       # number of ReadReq accesses(hits+misses)
system.cpu.dcache.ReadReq_accesses::total    340359065                       # number of ReadReq accesses(hits+misses)
system.cpu.dcache.ReadReq_miss_rate::.cpu.data     0.000134                       # miss rate for ReadReq accesses
system.cpu.dcache.ReadReq_miss_rate::.switch_cpus.data     0.003686                       # miss rate for ReadReq accesses
system.cpu.dcache.ReadReq_miss_rate::total     0.001321                       # miss rate for ReadReq accesses
system.cpu.dcache.ReadReq_avg_miss_latency::.switch_cpus.data 18042.631913                       # average ReadReq miss latency
system.cpu.dcache.ReadReq_avg_miss_latency::total 16821.624670                       # average ReadReq miss latency
system.cpu.dcache.ReadReq_mshr_misses::.switch_cpus.data       419064                       # number of ReadReq MSHR misses
system.cpu.dcache.ReadReq_mshr_misses::total       419064                       # number of ReadReq MSHR misses
system.cpu.dcache.ReadReq_mshr_miss_latency::.switch_cpus.data   7141954500                       # number of ReadReq MSHR miss cycles
system.cpu.dcache.ReadReq_mshr_miss_latency::total   7141954500                       # number of ReadReq MSHR miss cycles
system.cpu.dcache.ReadReq_mshr_miss_rate::.switch_cpus.data     0.003686                       # mshr miss rate for ReadReq accesses
system.cpu.dcache.ReadReq_mshr_miss_rate::total     0.001231                       # mshr miss rate for ReadReq accesses
system.cpu.dcache.ReadReq_avg_mshr_miss_latency::.switch_cpus.data 17042.634299                       # average ReadReq mshr miss latency
system.cpu.dcache.ReadReq_avg_mshr_miss_latency::total 17042.634299                       # average ReadReq mshr miss latency
system.cpu.dcache.WriteReq_hits::.cpu.data    144139092                       # number of WriteReq hits
system.cpu.dcache.WriteReq_hits::.switch_cpus.data     64070453                       # number of WriteReq hits
system.cpu.dcache.WriteReq_hits::total      208209545                       # number of WriteReq hits
system.cpu.dcache.WriteReq_misses::.cpu.data       149938                       # number of WriteReq misses
system.cpu.dcache.WriteReq_misses::.switch_cpus.data       712568                       # number of WriteReq misses
system.cpu.dcache.WriteReq_misses::total       862506                       # number of WriteReq misses
system.cpu.dcache.WriteReq_miss_latency::.switch_cpus.data  55523763399                       # number of WriteReq miss cycles
system.cpu.dcache.WriteReq_miss_latency::total  55523763399                       # number of WriteReq miss cycles
system.cpu.dcache.WriteReq_accesses::.cpu.data    144289030                       # number of WriteReq accesses(hits+misses)
system.cpu.dcache.WriteReq_accesses::.switch_cpus.data     64783021                       # number of WriteReq accesses(hits+misses)
system.cpu.dcache.WriteReq_accesses::total    209072051                       # number of WriteReq accesses(hits+misses)
system.cpu.dcache.WriteReq_miss_rate::.cpu.data     0.001039                       # miss rate for WriteReq accesses
system.cpu.dcache.WriteReq_miss_rate::.switch_cpus.data     0.010999                       # miss rate for WriteReq accesses
system.cpu.dcache.WriteReq_miss_rate::total     0.004125                       # miss rate for WriteReq accesses
system.cpu.dcache.WriteReq_avg_miss_latency::.switch_cpus.data 77920.652343                       # average WriteReq miss latency
system.cpu.dcache.WriteReq_avg_miss_latency::total 64374.930028                       # average WriteReq miss latency
system.cpu.dcache.WriteReq_mshr_misses::.switch_cpus.data       712568                       # number of WriteReq MSHR misses
system.cpu.dcache.WriteReq_mshr_misses::total       712568                       # number of WriteReq MSHR misses
system.cpu.dcache.WriteReq_mshr_miss_latency::.switch_cpus.data  54811195399                       # number of WriteReq MSHR miss cycles
system.cpu.dcache.WriteReq_mshr_miss_latency::total  54811195399                       # number of WriteReq MSHR miss cycles
system.cpu.dcache.WriteReq_mshr_miss_rate::.switch_cpus.data     0.010999                       # mshr miss rate for WriteReq accesses
system.cpu.dcache.WriteReq_mshr_miss_rate::total     0.003408                       # mshr miss rate for WriteReq accesses
system.cpu.dcache.WriteReq_avg_mshr_miss_latency::.switch_cpus.data 76920.652343                       # average WriteReq mshr miss latency
system.cpu.dcache.WriteReq_avg_mshr_miss_latency::total 76920.652343                       # average WriteReq mshr miss latency
system.cpu.dcache.SoftPFReq_hits::.cpu.data          223                       # number of SoftPFReq hits
system.cpu.dcache.SoftPFReq_hits::.switch_cpus.data       367844                       # number of SoftPFReq hits
system.cpu.dcache.SoftPFReq_hits::total        368067                       # number of SoftPFReq hits
system.cpu.dcache.SoftPFReq_misses::.cpu.data          207                       # number of SoftPFReq misses
system.cpu.dcache.SoftPFReq_misses::.switch_cpus.data        16728                       # number of SoftPFReq misses
system.cpu.dcache.SoftPFReq_misses::total        16935                       # number of SoftPFReq misses
system.cpu.dcache.SoftPFReq_accesses::.cpu.data          430                       # number of SoftPFReq accesses(hits+misses)
system.cpu.dcache.SoftPFReq_accesses::.switch_cpus.data       384572                       # number of SoftPFReq accesses(hits+misses)
system.cpu.dcache.SoftPFReq_accesses::total       385002                       # number of SoftPFReq accesses(hits+misses)
system.cpu.dcache.SoftPFReq_miss_rate::.cpu.data     0.481395                       # miss rate for SoftPFReq accesses
system.cpu.dcache.SoftPFReq_miss_rate::.switch_cpus.data     0.043498                       # miss rate for SoftPFReq accesses
system.cpu.dcache.SoftPFReq_miss_rate::total     0.043987                       # miss rate for SoftPFReq accesses
system.cpu.dcache.SoftPFReq_mshr_misses::.switch_cpus.data        16728                       # number of SoftPFReq MSHR misses
system.cpu.dcache.SoftPFReq_mshr_misses::total        16728                       # number of SoftPFReq MSHR misses
system.cpu.dcache.SoftPFReq_mshr_miss_latency::.switch_cpus.data   1065391500                       # number of SoftPFReq MSHR miss cycles
system.cpu.dcache.SoftPFReq_mshr_miss_latency::total   1065391500                       # number of SoftPFReq MSHR miss cycles
system.cpu.dcache.SoftPFReq_mshr_miss_rate::.switch_cpus.data     0.043498                       # mshr miss rate for SoftPFReq accesses
system.cpu.dcache.SoftPFReq_mshr_miss_rate::total     0.043449                       # mshr miss rate for SoftPFReq accesses
system.cpu.dcache.SoftPFReq_avg_mshr_miss_latency::.switch_cpus.data 63689.114060                       # average SoftPFReq mshr miss latency
system.cpu.dcache.SoftPFReq_avg_mshr_miss_latency::total 63689.114060                       # average SoftPFReq mshr miss latency
system.cpu.dcache.tags.pwrStateResidencyTicks::UNDEFINED 1393077765000                       # Cumulative time (in ticks) in various power states
system.cpu.dcache.tags.tagsinuse           511.970641                       # Cycle average of tags in use
system.cpu.dcache.tags.total_refs           549723736                       # Total number of references to valid blocks.
system.cpu.dcache.tags.sampled_refs           1328184                       # Sample count of references to valid blocks.
system.cpu.dcache.tags.avg_refs            413.891250                       # Average number of references to valid blocks.
system.cpu.dcache.tags.warmup_cycle              1000                       # Cycle when the warmup percentage was hit.
system.cpu.dcache.tags.occ_blocks::.cpu.data   418.863256                       # Average occupied blocks per requestor
system.cpu.dcache.tags.occ_blocks::.switch_cpus.data    93.107384                       # Average occupied blocks per requestor
system.cpu.dcache.tags.occ_percent::.cpu.data     0.818092                       # Average percentage of cache occupancy
system.cpu.dcache.tags.occ_percent::.switch_cpus.data     0.181850                       # Average percentage of cache occupancy
system.cpu.dcache.tags.occ_percent::total     0.999943                       # Average percentage of cache occupancy
system.cpu.dcache.tags.occ_task_id_blocks::1024          512                       # Occupied blocks per task id
system.cpu.dcache.tags.age_task_id_blocks_1024::0          228                       # Occupied blocks per task id
system.cpu.dcache.tags.age_task_id_blocks_1024::1          257                       # Occupied blocks per task id
system.cpu.dcache.tags.age_task_id_blocks_1024::2           27                       # Occupied blocks per task id
system.cpu.dcache.tags.occ_task_id_percent::1024            1                       # Percentage of cache occupancy per task id
system.cpu.dcache.tags.tag_accesses        2200593168                       # Number of tag accesses
system.cpu.dcache.tags.data_accesses       2200593168                       # Number of data accesses

---------- End Simulation Statistics   ----------
