
---------- Begin Simulation Statistics ----------
final_tick                               1589656100500                       # Number of ticks from beginning of simulation (restored from checkpoints and never reset)
host_inst_rate                                 366121                       # Simulator instruction rate (inst/s)
host_mem_usage                                4504608                       # Number of bytes of host memory used
host_op_rate                                   568416                       # Simulator op (including micro ops) rate (op/s)
host_seconds                                  4097.01                       # Real time elapsed on the host
host_tick_rate                              126945017                       # Simulator tick rate (ticks/s)
sim_freq                                 1000000000000                       # Frequency of simulated ticks
sim_insts                                  1500000001                       # Number of instructions simulated
sim_ops                                    2328807782                       # Number of ops (including micro ops) simulated
sim_seconds                                  0.520095                       # Number of seconds simulated
sim_ticks                                520095233500                       # Number of ticks simulated
system.cpu.committedInsts                           0                       # Number of instructions committed
system.cpu.committedOps                             0                       # Number of ops (including micro ops) committed
system.cpu.dtb.rdAccesses                           0                       # TLB accesses on read requests
system.cpu.dtb.rdMisses                             0                       # TLB misses on read requests
system.cpu.dtb.wrAccesses                           0                       # TLB accesses on write requests
system.cpu.dtb.wrMisses                             0                       # TLB misses on write requests
system.cpu.idle_fraction                            0                       # Percentage of idle cycles
system.cpu.itb.rdAccesses                           0                       # TLB accesses on read requests
system.cpu.itb.rdMisses                             0                       # TLB misses on read requests
system.cpu.itb.wrAccesses                           0                       # TLB accesses on write requests
system.cpu.itb.wrMisses                             0                       # TLB misses on write requests
system.cpu.not_idle_fraction                        1                       # Percentage of non-idle cycles
system.cpu.numCycles                                0                       # number of cpu cycles simulated
system.cpu.numWorkItemsCompleted                    0                       # number of work items this cpu completed
system.cpu.numWorkItemsStarted                      0                       # number of work items this cpu started
system.cpu.num_busy_cycles                          0                       # Number of busy cycles
system.cpu.num_conditional_control_insts            0                       # number of instructions that are conditional controls
system.cpu.num_fp_alu_accesses                      0                       # Number of float alu accesses
system.cpu.num_fp_insts                             0                       # number of float instructions
system.cpu.num_fp_register_reads                    0                       # number of times the floating registers were read
system.cpu.num_fp_register_writes                   0                       # number of times the floating registers were written
system.cpu.num_func_calls                           0                       # number of times a function call or return occured
system.cpu.num_idle_cycles                          0                       # Number of idle cycles
system.cpu.num_int_alu_accesses                     0                       # Number of integer alu accesses
system.cpu.num_int_insts                            0                       # number of integer instructions
system.cpu.num_int_register_reads                   0                       # number of times the integer registers were read
system.cpu.num_int_register_writes                  0                       # number of times the integer registers were written
system.cpu.num_load_insts                           0                       # Number of load instructions
system.cpu.num_mem_refs                             0                       # number of memory refs
system.cpu.num_store_insts                          0                       # Number of store instructions
system.cpu.num_vec_alu_accesses                     0                       # Number of vector alu accesses
system.cpu.num_vec_insts                            0                       # number of vector instructions
system.cpu.num_vec_register_reads                   0                       # number of times the vector registers were read
system.cpu.num_vec_register_writes                  0                       # number of times the vector registers were written
system.cpu.op_class::No_OpClass                     0                       # Class of executed instruction
system.cpu.op_class::IntAlu                         0                       # Class of executed instruction
system.cpu.op_class::IntMult                        0                       # Class of executed instruction
system.cpu.op_class::IntDiv                         0                       # Class of executed instruction
system.cpu.op_class::FloatAdd                       0                       # Class of executed instruction
system.cpu.op_class::FloatCmp                       0                       # Class of executed instruction
system.cpu.op_class::FloatCvt                       0                       # Class of executed instruction
system.cpu.op_class::FloatMult                      0                       # Class of executed instruction
system.cpu.op_class::FloatMultAcc                   0                       # Class of executed instruction
system.cpu.op_class::FloatDiv                       0                       # Class of executed instruction
system.cpu.op_class::FloatMisc                      0                       # Class of executed instruction
system.cpu.op_class::FloatSqrt                      0                       # Class of executed instruction
system.cpu.op_class::SimdAdd                        0                       # Class of executed instruction
system.cpu.op_class::SimdAddAcc                     0                       # Class of executed instruction
system.cpu.op_class::SimdAlu                        0                       # Class of executed instruction
system.cpu.op_class::SimdCmp                        0                       # Class of executed instruction
system.cpu.op_class::SimdCvt                        0                       # Class of executed instruction
system.cpu.op_class::SimdMisc                       0                       # Class of executed instruction
system.cpu.op_class::SimdMult                       0                       # Class of executed instruction
system.cpu.op_class::SimdMultAcc                    0                       # Class of executed instruction
system.cpu.op_class::SimdShift                      0                       # Class of executed instruction
system.cpu.op_class::SimdShiftAcc                   0                       # Class of executed instruction
system.cpu.op_class::SimdDiv                        0                       # Class of executed instruction
system.cpu.op_class::SimdSqrt                       0                       # Class of executed instruction
system.cpu.op_class::SimdFloatAdd                   0                       # Class of executed instruction
system.cpu.op_class::SimdFloatAlu                   0                       # Class of executed instruction
system.cpu.op_class::SimdFloatCmp                   0                       # Class of executed instruction
system.cpu.op_class::SimdFloatCvt                   0                       # Class of executed instruction
system.cpu.op_class::SimdFloatDiv                   0                       # Class of executed instruction
system.cpu.op_class::SimdFloatMisc                  0                       # Class of executed instruction
system.cpu.op_class::SimdFloatMult                  0                       # Class of executed instruction
system.cpu.op_class::SimdFloatMultAcc               0                       # Class of executed instruction
system.cpu.op_class::SimdFloatSqrt                  0                       # Class of executed instruction
system.cpu.op_class::SimdReduceAdd                  0                       # Class of executed instruction
system.cpu.op_class::SimdReduceAlu                  0                       # Class of executed instruction
system.cpu.op_class::SimdReduceCmp                  0                       # Class of executed instruction
system.cpu.op_class::SimdFloatReduceAdd             0                       # Class of executed instruction
system.cpu.op_class::SimdFloatReduceCmp             0                       # Class of executed instruction
system.cpu.op_class::SimdAes                        0                       # Class of executed instruction
system.cpu.op_class::SimdAesMix                     0                       # Class of executed instruction
system.cpu.op_class::SimdSha1Hash                   0                       # Class of executed instruction
system.cpu.op_class::SimdSha1Hash2                  0                       # Class of executed instruction
system.cpu.op_class::SimdSha256Hash                 0                       # Class of executed instruction
system.cpu.op_class::SimdSha256Hash2                0                       # Class of executed instruction
system.cpu.op_class::SimdShaSigma2                  0                       # Class of executed instruction
system.cpu.op_class::SimdShaSigma3                  0                       # Class of executed instruction
system.cpu.op_class::SimdPredAlu                    0                       # Class of executed instruction
system.cpu.op_class::MemRead                        0                       # Class of executed instruction
system.cpu.op_class::MemWrite                       0                       # Class of executed instruction
system.cpu.op_class::FloatMemRead                   0                       # Class of executed instruction
system.cpu.op_class::FloatMemWrite                  0                       # Class of executed instruction
system.cpu.op_class::IprAccess                      0                       # Class of executed instruction
system.cpu.op_class::InstPrefetch                   0                       # Class of executed instruction
system.cpu.op_class::total                          0                       # Class of executed instruction
system.cpu.workload.numSyscalls                     0                       # Number of system calls
system.membus.snoop_filter.hit_multi_requests            0                       # Number of requests hitting in the snoop filter with multiple (>1) holders of the requested data.
system.membus.snoop_filter.hit_multi_snoops            0                       # Number of snoops hitting in the snoop filter with multiple (>1) holders of the requested data.
system.membus.snoop_filter.hit_single_requests      3501102                       # Number of requests hitting in the snoop filter with a single holder of the requested data.
system.membus.snoop_filter.hit_single_snoops            0                       # Number of snoops hitting in the snoop filter with a single holder of the requested data.
system.membus.snoop_filter.tot_requests       7002199                       # Total number of requests made to the snoop filter.
system.membus.snoop_filter.tot_snoops               0                       # Total number of snoops made to the snoop filter.
system.switch_cpus.branchPred.BTBCorrect            0                       # Number of correct BTB predictions (this stat may not work properly.
system.switch_cpus.branchPred.BTBHitPct      0.000000                       # BTB Hit Percentage
system.switch_cpus.branchPred.BTBHits               0                       # Number of BTB hits
system.switch_cpus.branchPred.BTBLookups      8227814                       # Number of BTB lookups
system.switch_cpus.branchPred.RASInCorrect            0                       # Number of incorrect RAS predictions.
system.switch_cpus.branchPred.condIncorrect       390006                       # Number of conditional branches incorrect
system.switch_cpus.branchPred.condPredicted      8646698                       # Number of conditional branches predicted
system.switch_cpus.branchPred.indirectHits      2182626                       # Number of indirect target hits.
system.switch_cpus.branchPred.indirectLookups      8227814                       # Number of indirect predictor lookups.
system.switch_cpus.branchPred.indirectMisses      6045188                       # Number of indirect misses.
system.switch_cpus.branchPred.lookups         9054842                       # Number of BP lookups
system.switch_cpus.branchPred.usedRAS          199297                       # Number of times the RAS was used to get a target.
system.switch_cpus.branchPredindirectMispredicted       312863                       # Number of mispredicted indirect branches.
system.switch_cpus.cc_regfile_reads          52089252                       # number of cc regfile reads
system.switch_cpus.cc_regfile_writes         35306786                       # number of cc regfile writes
system.switch_cpus.commit.amos                      0                       # Number of atomic instructions committed
system.switch_cpus.commit.branchMispredicts       390366                       # The number of times a branch was mispredicted
system.switch_cpus.commit.branches            8833774                       # Number of branches committed
system.switch_cpus.commit.bw_lim_events      27678721                       # number cycles where commit BW limit reached
system.switch_cpus.commit.commitSquashedInsts      4922155                       # The number of squashed insts skipped by commit
system.switch_cpus.commit.committedInsts    500000001                       # Number of instructions committed
system.switch_cpus.commit.committedOps      767694187                       # Number of ops (including micro ops) committed
system.switch_cpus.commit.committed_per_cycle::samples    886229809                       # Number of insts commited each cycle
system.switch_cpus.commit.committed_per_cycle::mean     0.866247                       # Number of insts commited each cycle
system.switch_cpus.commit.committed_per_cycle::stdev     1.906945                       # Number of insts commited each cycle
system.switch_cpus.commit.committed_per_cycle::underflows            0      0.00%      0.00% # Number of insts commited each cycle
system.switch_cpus.commit.committed_per_cycle::0    653905371     73.79%     73.79% # Number of insts commited each cycle
system.switch_cpus.commit.committed_per_cycle::1     82931774      9.36%     83.14% # Number of insts commited each cycle
system.switch_cpus.commit.committed_per_cycle::2     29486105      3.33%     86.47% # Number of insts commited each cycle
system.switch_cpus.commit.committed_per_cycle::3     26989981      3.05%     89.52% # Number of insts commited each cycle
system.switch_cpus.commit.committed_per_cycle::4     28975640      3.27%     92.79% # Number of insts commited each cycle
system.switch_cpus.commit.committed_per_cycle::5     17283961      1.95%     94.74% # Number of insts commited each cycle
system.switch_cpus.commit.committed_per_cycle::6     11779666      1.33%     96.06% # Number of insts commited each cycle
system.switch_cpus.commit.committed_per_cycle::7      7198590      0.81%     96.88% # Number of insts commited each cycle
system.switch_cpus.commit.committed_per_cycle::8     27678721      3.12%    100.00% # Number of insts commited each cycle
system.switch_cpus.commit.committed_per_cycle::overflows            0      0.00%    100.00% # Number of insts commited each cycle
system.switch_cpus.commit.committed_per_cycle::min_value            0                       # Number of insts commited each cycle
system.switch_cpus.commit.committed_per_cycle::max_value            8                       # Number of insts commited each cycle
system.switch_cpus.commit.committed_per_cycle::total    886229809                       # Number of insts commited each cycle
system.switch_cpus.commit.fp_insts          698559296                       # Number of committed floating point instructions.
system.switch_cpus.commit.function_calls       198704                       # Number of function calls committed.
system.switch_cpus.commit.int_insts         237825453                       # Number of committed integer instructions.
system.switch_cpus.commit.loads             134565501                       # Number of loads committed
system.switch_cpus.commit.membars                   0                       # Number of memory barriers committed
system.switch_cpus.commit.op_class_0::No_OpClass           21      0.00%      0.00% # Class of committed instruction
system.switch_cpus.commit.op_class_0::IntAlu    235954012     30.74%     30.74% # Class of committed instruction
system.switch_cpus.commit.op_class_0::IntMult            0      0.00%     30.74% # Class of committed instruction
system.switch_cpus.commit.op_class_0::IntDiv            0      0.00%     30.74% # Class of committed instruction
system.switch_cpus.commit.op_class_0::FloatAdd     84772741     11.04%     41.78% # Class of committed instruction
system.switch_cpus.commit.op_class_0::FloatCmp            0      0.00%     41.78% # Class of committed instruction
system.switch_cpus.commit.op_class_0::FloatCvt            0      0.00%     41.78% # Class of committed instruction
system.switch_cpus.commit.op_class_0::FloatMult            0      0.00%     41.78% # Class of committed instruction
system.switch_cpus.commit.op_class_0::FloatMultAcc            0      0.00%     41.78% # Class of committed instruction
system.switch_cpus.commit.op_class_0::FloatDiv            0      0.00%     41.78% # Class of committed instruction
system.switch_cpus.commit.op_class_0::FloatMisc            0      0.00%     41.78% # Class of committed instruction
system.switch_cpus.commit.op_class_0::FloatSqrt            0      0.00%     41.78% # Class of committed instruction
system.switch_cpus.commit.op_class_0::SimdAdd            0      0.00%     41.78% # Class of committed instruction
system.switch_cpus.commit.op_class_0::SimdAddAcc            0      0.00%     41.78% # Class of committed instruction
system.switch_cpus.commit.op_class_0::SimdAlu     24802932      3.23%     45.01% # Class of committed instruction
system.switch_cpus.commit.op_class_0::SimdCmp            0      0.00%     45.01% # Class of committed instruction
system.switch_cpus.commit.op_class_0::SimdCvt            0      0.00%     45.01% # Class of committed instruction
system.switch_cpus.commit.op_class_0::SimdMisc       754186      0.10%     45.11% # Class of committed instruction
system.switch_cpus.commit.op_class_0::SimdMult            0      0.00%     45.11% # Class of committed instruction
system.switch_cpus.commit.op_class_0::SimdMultAcc            0      0.00%     45.11% # Class of committed instruction
system.switch_cpus.commit.op_class_0::SimdShift            0      0.00%     45.11% # Class of committed instruction
system.switch_cpus.commit.op_class_0::SimdShiftAcc            0      0.00%     45.11% # Class of committed instruction
system.switch_cpus.commit.op_class_0::SimdDiv            0      0.00%     45.11% # Class of committed instruction
system.switch_cpus.commit.op_class_0::SimdSqrt            0      0.00%     45.11% # Class of committed instruction
system.switch_cpus.commit.op_class_0::SimdFloatAdd    117779713     15.34%     60.45% # Class of committed instruction
system.switch_cpus.commit.op_class_0::SimdFloatAlu            0      0.00%     60.45% # Class of committed instruction
system.switch_cpus.commit.op_class_0::SimdFloatCmp            0      0.00%     60.45% # Class of committed instruction
system.switch_cpus.commit.op_class_0::SimdFloatCvt      5624045      0.73%     61.18% # Class of committed instruction
system.switch_cpus.commit.op_class_0::SimdFloatDiv      2786974      0.36%     61.54% # Class of committed instruction
system.switch_cpus.commit.op_class_0::SimdFloatMisc            0      0.00%     61.54% # Class of committed instruction
system.switch_cpus.commit.op_class_0::SimdFloatMult    120554460     15.70%     77.25% # Class of committed instruction
system.switch_cpus.commit.op_class_0::SimdFloatMultAcc            0      0.00%     77.25% # Class of committed instruction
system.switch_cpus.commit.op_class_0::SimdFloatSqrt       148336      0.02%     77.27% # Class of committed instruction
system.switch_cpus.commit.op_class_0::SimdReduceAdd            0      0.00%     77.27% # Class of committed instruction
system.switch_cpus.commit.op_class_0::SimdReduceAlu            0      0.00%     77.27% # Class of committed instruction
system.switch_cpus.commit.op_class_0::SimdReduceCmp            0      0.00%     77.27% # Class of committed instruction
system.switch_cpus.commit.op_class_0::SimdFloatReduceAdd            0      0.00%     77.27% # Class of committed instruction
system.switch_cpus.commit.op_class_0::SimdFloatReduceCmp            0      0.00%     77.27% # Class of committed instruction
system.switch_cpus.commit.op_class_0::SimdAes            0      0.00%     77.27% # Class of committed instruction
system.switch_cpus.commit.op_class_0::SimdAesMix            0      0.00%     77.27% # Class of committed instruction
system.switch_cpus.commit.op_class_0::SimdSha1Hash            0      0.00%     77.27% # Class of committed instruction
system.switch_cpus.commit.op_class_0::SimdSha1Hash2            0      0.00%     77.27% # Class of committed instruction
system.switch_cpus.commit.op_class_0::SimdSha256Hash            0      0.00%     77.27% # Class of committed instruction
system.switch_cpus.commit.op_class_0::SimdSha256Hash2            0      0.00%     77.27% # Class of committed instruction
system.switch_cpus.commit.op_class_0::SimdShaSigma2            0      0.00%     77.27% # Class of committed instruction
system.switch_cpus.commit.op_class_0::SimdShaSigma3            0      0.00%     77.27% # Class of committed instruction
system.switch_cpus.commit.op_class_0::SimdPredAlu            0      0.00%     77.27% # Class of committed instruction
system.switch_cpus.commit.op_class_0::MemRead      4983029      0.65%     77.92% # Class of committed instruction
system.switch_cpus.commit.op_class_0::MemWrite      1595594      0.21%     78.12% # Class of committed instruction
system.switch_cpus.commit.op_class_0::FloatMemRead    129582472     16.88%     95.00% # Class of committed instruction
system.switch_cpus.commit.op_class_0::FloatMemWrite     38355671      5.00%    100.00% # Class of committed instruction
system.switch_cpus.commit.op_class_0::IprAccess            0      0.00%    100.00% # Class of committed instruction
system.switch_cpus.commit.op_class_0::InstPrefetch            0      0.00%    100.00% # Class of committed instruction
system.switch_cpus.commit.op_class_0::total    767694186                       # Class of committed instruction
system.switch_cpus.commit.refs              174516766                       # Number of memory references committed
system.switch_cpus.commit.swp_count                 0                       # Number of s/w prefetches committed
system.switch_cpus.commit.vec_insts                 0                       # Number of committed Vector instructions.
system.switch_cpus.committedInsts           500000000                       # Number of Instructions Simulated
system.switch_cpus.committedOps             767694186                       # Number of Ops (including micro ops) Simulated
system.switch_cpus.cpi                       2.080381                       # CPI: Cycles Per Instruction
system.switch_cpus.cpi_total                 2.080381                       # CPI: Total CPI of All Threads
system.switch_cpus.decode.BlockedCycles      16702597                       # Number of cycles decode is blocked
system.switch_cpus.decode.DecodedInsts      773402704                       # Number of instructions handled by decode
system.switch_cpus.decode.IdleCycles        754296908                       # Number of cycles decode is idle
system.switch_cpus.decode.RunCycles         113790462                       # Number of cycles decode is running
system.switch_cpus.decode.SquashCycles         403831                       # Number of cycles decode is squashing
system.switch_cpus.decode.UnblockCycles       1846005                       # Number of cycles decode is unblocking
system.switch_cpus.dtb.rdAccesses           135095967                       # TLB accesses on read requests
system.switch_cpus.dtb.rdMisses                   933                       # TLB misses on read requests
system.switch_cpus.dtb.wrAccesses            40065130                       # TLB accesses on write requests
system.switch_cpus.dtb.wrMisses                  5740                       # TLB misses on write requests
system.switch_cpus.fetch.Branches             9054842                       # Number of branches that fetch encountered
system.switch_cpus.fetch.CacheLines          48263167                       # Number of cache lines fetched
system.switch_cpus.fetch.Cycles             125754145                       # Number of cycles fetch has run and was not squashing or blocked
system.switch_cpus.fetch.IcacheSquashes        377801                       # Number of outstanding Icache misses that were squashed
system.switch_cpus.fetch.IcacheWaitRetryStallCycles      4797627                       # Number of stall cycles due to full MSHR
system.switch_cpus.fetch.Insts              503520576                       # Number of instructions fetch has processed
system.switch_cpus.fetch.MiscStallCycles       415954                       # Number of cycles fetch has spent waiting on interrupts, or bad addresses, or out of MSHRs
system.switch_cpus.fetch.PendingTrapStallCycles         2842                       # Number of stall cycles due to pending traps
system.switch_cpus.fetch.SquashCycles          807662                       # Number of cycles fetch has spent squashing
system.switch_cpus.fetch.TlbCycles                110                       # Number of cycles fetch has spent waiting for tlb
system.switch_cpus.fetch.branchRate          0.008705                       # Number of branch fetches per cycle
system.switch_cpus.fetch.icacheStallCycles    755665376                       # Number of cycles fetch is stalled on an Icache miss
system.switch_cpus.fetch.predictedBranches      2381923                       # Number of branches that fetch has predicted taken
system.switch_cpus.fetch.rate                0.484066                       # Number of inst fetches per cycle
system.switch_cpus.fetch.rateDist::samples    887039885                       # Number of instructions fetched each cycle (Total)
system.switch_cpus.fetch.rateDist::mean      0.872186                       # Number of instructions fetched each cycle (Total)
system.switch_cpus.fetch.rateDist::stdev     2.388482                       # Number of instructions fetched each cycle (Total)
system.switch_cpus.fetch.rateDist::underflows            0      0.00%      0.00% # Number of instructions fetched each cycle (Total)
system.switch_cpus.fetch.rateDist::0        770667634     86.88%     86.88% # Number of instructions fetched each cycle (Total)
system.switch_cpus.fetch.rateDist::1          6617029      0.75%     87.63% # Number of instructions fetched each cycle (Total)
system.switch_cpus.fetch.rateDist::2          6390565      0.72%     88.35% # Number of instructions fetched each cycle (Total)
system.switch_cpus.fetch.rateDist::3          4857397      0.55%     88.89% # Number of instructions fetched each cycle (Total)
system.switch_cpus.fetch.rateDist::4          2950230      0.33%     89.23% # Number of instructions fetched each cycle (Total)
system.switch_cpus.fetch.rateDist::5          5522873      0.62%     89.85% # Number of instructions fetched each cycle (Total)
system.switch_cpus.fetch.rateDist::6          5886467      0.66%     90.51% # Number of instructions fetched each cycle (Total)
system.switch_cpus.fetch.rateDist::7          8221966      0.93%     91.44% # Number of instructions fetched each cycle (Total)
system.switch_cpus.fetch.rateDist::8         75925724      8.56%    100.00% # Number of instructions fetched each cycle (Total)
system.switch_cpus.fetch.rateDist::overflows            0      0.00%    100.00% # Number of instructions fetched each cycle (Total)
system.switch_cpus.fetch.rateDist::min_value            0                       # Number of instructions fetched each cycle (Total)
system.switch_cpus.fetch.rateDist::max_value            8                       # Number of instructions fetched each cycle (Total)
system.switch_cpus.fetch.rateDist::total    887039885                       # Number of instructions fetched each cycle (Total)
system.switch_cpus.fp_regfile_reads        1173171164                       # number of floating regfile reads
system.switch_cpus.fp_regfile_writes        655599827                       # number of floating regfile writes
system.switch_cpus.idleCycles               153150582                       # Total number of cycles that the CPU has spent unscheduled due to idling
system.switch_cpus.iew.branchMispredicts       430349                       # Number of branch mispredicts detected at execute
system.switch_cpus.iew.exec_branches          8934996                       # Number of branches executed
system.switch_cpus.iew.exec_nop                     0                       # number of nop insts executed
system.switch_cpus.iew.exec_rate             0.779211                       # Inst execution rate
system.switch_cpus.iew.exec_refs            214802271                       # number of memory reference insts executed
system.switch_cpus.iew.exec_stores           40065130                       # Number of stores executed
system.switch_cpus.iew.exec_swp                     0                       # number of swp insts executed
system.switch_cpus.iew.iewBlockCycles        11889435                       # Number of cycles IEW is blocking
system.switch_cpus.iew.iewDispLoadInsts     135176132                       # Number of dispatched load instructions
system.switch_cpus.iew.iewDispNonSpecInsts         7256                       # Number of dispatched non-speculative instructions
system.switch_cpus.iew.iewDispSquashedInsts         1136                       # Number of squashed instructions skipped by dispatch
system.switch_cpus.iew.iewDispStoreInsts     40180382                       # Number of dispatched store instructions
system.switch_cpus.iew.iewDispatchedInsts    772616357                       # Number of instructions dispatched to IQ
system.switch_cpus.iew.iewExecLoadInsts     174737141                       # Number of load instructions executed
system.switch_cpus.iew.iewExecSquashedInsts       327279                       # Number of squashed instructions skipped in execute
system.switch_cpus.iew.iewExecutedInsts     810528238                       # Number of executed instructions
system.switch_cpus.iew.iewIQFullEvents         158689                       # Number of times the IQ has become full, causing a stall
system.switch_cpus.iew.iewIdleCycles                0                       # Number of cycles IEW is idle
system.switch_cpus.iew.iewLSQFullEvents             0                       # Number of times the LSQ has become full, causing a stall
system.switch_cpus.iew.iewSquashCycles         403831                       # Number of cycles IEW is squashing
system.switch_cpus.iew.iewUnblockCycles        312995                       # Number of cycles IEW is unblocking
system.switch_cpus.iew.lsq.thread0.blockedLoads            0                       # Number of blocked loads due to partial load-store forwarding
system.switch_cpus.iew.lsq.thread0.cacheBlocked      3442373                       # Number of times an access to memory failed due to the cache being blocked
system.switch_cpus.iew.lsq.thread0.forwLoads     10338009                       # Number of loads that had data forwarded from stores
system.switch_cpus.iew.lsq.thread0.ignoredResponses        24832                       # Number of memory responses ignored because the instruction is squashed
system.switch_cpus.iew.lsq.thread0.invAddrLoads            0                       # Number of loads ignored due to an invalid address
system.switch_cpus.iew.lsq.thread0.invAddrSwpfs            0                       # Number of software prefetches ignored due to an invalid address
system.switch_cpus.iew.lsq.thread0.memOrderViolation        16594                       # Number of memory ordering violations
system.switch_cpus.iew.lsq.thread0.rescheduledLoads            0                       # Number of loads that were rescheduled
system.switch_cpus.iew.lsq.thread0.squashedLoads       610631                       # Number of loads squashed
system.switch_cpus.iew.lsq.thread0.squashedStores       229117                       # Number of stores squashed
system.switch_cpus.iew.memOrderViolationEvents        16594                       # Number of memory order violations
system.switch_cpus.iew.predictedNotTakenIncorrect       375352                       # Number of branches that were predicted not taken incorrectly
system.switch_cpus.iew.predictedTakenIncorrect        54997                       # Number of branches that were predicted taken incorrectly
system.switch_cpus.iew.wb_consumers         821645883                       # num instructions consuming a value
system.switch_cpus.iew.wb_count             770575198                       # cumulative count of insts written-back
system.switch_cpus.iew.wb_fanout             0.613881                       # average fanout of values written-back
system.switch_cpus.iew.wb_producers         504392817                       # num instructions producing a value
system.switch_cpus.iew.wb_rate               0.740802                       # insts written-back per cycle
system.switch_cpus.iew.wb_sent              770683382                       # cumulative count of insts sent to commit
system.switch_cpus.int_regfile_reads        486501189                       # number of integer regfile reads
system.switch_cpus.int_regfile_writes        60327073                       # number of integer regfile writes
system.switch_cpus.ipc                       0.480681                       # IPC: Instructions Per Cycle
system.switch_cpus.ipc_total                 0.480681                       # IPC: Total IPC of All Threads
system.switch_cpus.iq.FU_type_0::No_OpClass        99809      0.01%      0.01% # Type of FU issued
system.switch_cpus.iq.FU_type_0::IntAlu     237782557     29.32%     29.34% # Type of FU issued
system.switch_cpus.iq.FU_type_0::IntMult            0      0.00%     29.34% # Type of FU issued
system.switch_cpus.iq.FU_type_0::IntDiv             0      0.00%     29.34% # Type of FU issued
system.switch_cpus.iq.FU_type_0::FloatAdd     85125335     10.50%     39.84% # Type of FU issued
system.switch_cpus.iq.FU_type_0::FloatCmp            0      0.00%     39.84% # Type of FU issued
system.switch_cpus.iq.FU_type_0::FloatCvt            0      0.00%     39.84% # Type of FU issued
system.switch_cpus.iq.FU_type_0::FloatMult            0      0.00%     39.84% # Type of FU issued
system.switch_cpus.iq.FU_type_0::FloatMultAcc            0      0.00%     39.84% # Type of FU issued
system.switch_cpus.iq.FU_type_0::FloatDiv            0      0.00%     39.84% # Type of FU issued
system.switch_cpus.iq.FU_type_0::FloatMisc            0      0.00%     39.84% # Type of FU issued
system.switch_cpus.iq.FU_type_0::FloatSqrt            0      0.00%     39.84% # Type of FU issued
system.switch_cpus.iq.FU_type_0::SimdAdd            0      0.00%     39.84% # Type of FU issued
system.switch_cpus.iq.FU_type_0::SimdAddAcc            0      0.00%     39.84% # Type of FU issued
system.switch_cpus.iq.FU_type_0::SimdAlu     24947363      3.08%     42.91% # Type of FU issued
system.switch_cpus.iq.FU_type_0::SimdCmp            0      0.00%     42.91% # Type of FU issued
system.switch_cpus.iq.FU_type_0::SimdCvt            0      0.00%     42.91% # Type of FU issued
system.switch_cpus.iq.FU_type_0::SimdMisc       754599      0.09%     43.01% # Type of FU issued
system.switch_cpus.iq.FU_type_0::SimdMult            0      0.00%     43.01% # Type of FU issued
system.switch_cpus.iq.FU_type_0::SimdMultAcc            0      0.00%     43.01% # Type of FU issued
system.switch_cpus.iq.FU_type_0::SimdShift            0      0.00%     43.01% # Type of FU issued
system.switch_cpus.iq.FU_type_0::SimdShiftAcc            0      0.00%     43.01% # Type of FU issued
system.switch_cpus.iq.FU_type_0::SimdDiv            0      0.00%     43.01% # Type of FU issued
system.switch_cpus.iq.FU_type_0::SimdSqrt            0      0.00%     43.01% # Type of FU issued
system.switch_cpus.iq.FU_type_0::SimdFloatAdd    118031736     14.56%     57.56% # Type of FU issued
system.switch_cpus.iq.FU_type_0::SimdFloatAlu            0      0.00%     57.56% # Type of FU issued
system.switch_cpus.iq.FU_type_0::SimdFloatCmp            0      0.00%     57.56% # Type of FU issued
system.switch_cpus.iq.FU_type_0::SimdFloatCvt      5634499      0.69%     58.26% # Type of FU issued
system.switch_cpus.iq.FU_type_0::SimdFloatDiv      2786974      0.34%     58.60% # Type of FU issued
system.switch_cpus.iq.FU_type_0::SimdFloatMisc            0      0.00%     58.60% # Type of FU issued
system.switch_cpus.iq.FU_type_0::SimdFloatMult    120652394     14.88%     73.48% # Type of FU issued
system.switch_cpus.iq.FU_type_0::SimdFloatMultAcc            0      0.00%     73.48% # Type of FU issued
system.switch_cpus.iq.FU_type_0::SimdFloatSqrt       148336      0.02%     73.50% # Type of FU issued
system.switch_cpus.iq.FU_type_0::SimdReduceAdd            0      0.00%     73.50% # Type of FU issued
system.switch_cpus.iq.FU_type_0::SimdReduceAlu            0      0.00%     73.50% # Type of FU issued
system.switch_cpus.iq.FU_type_0::SimdReduceCmp            0      0.00%     73.50% # Type of FU issued
system.switch_cpus.iq.FU_type_0::SimdFloatReduceAdd            0      0.00%     73.50% # Type of FU issued
system.switch_cpus.iq.FU_type_0::SimdFloatReduceCmp            0      0.00%     73.50% # Type of FU issued
system.switch_cpus.iq.FU_type_0::SimdAes            0      0.00%     73.50% # Type of FU issued
system.switch_cpus.iq.FU_type_0::SimdAesMix            0      0.00%     73.50% # Type of FU issued
system.switch_cpus.iq.FU_type_0::SimdSha1Hash            0      0.00%     73.50% # Type of FU issued
system.switch_cpus.iq.FU_type_0::SimdSha1Hash2            0      0.00%     73.50% # Type of FU issued
system.switch_cpus.iq.FU_type_0::SimdSha256Hash            0      0.00%     73.50% # Type of FU issued
system.switch_cpus.iq.FU_type_0::SimdSha256Hash2            0      0.00%     73.50% # Type of FU issued
system.switch_cpus.iq.FU_type_0::SimdShaSigma2            0      0.00%     73.50% # Type of FU issued
system.switch_cpus.iq.FU_type_0::SimdShaSigma3            0      0.00%     73.50% # Type of FU issued
system.switch_cpus.iq.FU_type_0::SimdPredAlu            0      0.00%     73.50% # Type of FU issued
system.switch_cpus.iq.FU_type_0::MemRead     11975674      1.48%     74.98% # Type of FU issued
system.switch_cpus.iq.FU_type_0::MemWrite      1625528      0.20%     75.18% # Type of FU issued
system.switch_cpus.iq.FU_type_0::FloatMemRead    162817606     20.08%     95.26% # Type of FU issued
system.switch_cpus.iq.FU_type_0::FloatMemWrite     38473108      4.74%    100.00% # Type of FU issued
system.switch_cpus.iq.FU_type_0::IprAccess            0      0.00%    100.00% # Type of FU issued
system.switch_cpus.iq.FU_type_0::InstPrefetch            0      0.00%    100.00% # Type of FU issued
system.switch_cpus.iq.FU_type_0::total      810855518                       # Type of FU issued
system.switch_cpus.iq.fp_alu_accesses       742120519                       # Number of floating point alu accesses
system.switch_cpus.iq.fp_inst_queue_reads   1475657758                       # Number of floating instruction queue reads
system.switch_cpus.iq.fp_inst_queue_wakeup_accesses    700327849                       # Number of floating instruction queue wakeup accesses
system.switch_cpus.iq.fp_inst_queue_writes    705680595                       # Number of floating instruction queue writes
system.switch_cpus.iq.fu_busy_cnt            12978202                       # FU busy when requested
system.switch_cpus.iq.fu_busy_rate           0.016006                       # FU busy rate (busy events/executed inst)
system.switch_cpus.iq.fu_full::No_OpClass            0      0.00%      0.00% # attempts to use FU when none available
system.switch_cpus.iq.fu_full::IntAlu          204059      1.57%      1.57% # attempts to use FU when none available
system.switch_cpus.iq.fu_full::IntMult              0      0.00%      1.57% # attempts to use FU when none available
system.switch_cpus.iq.fu_full::IntDiv               0      0.00%      1.57% # attempts to use FU when none available
system.switch_cpus.iq.fu_full::FloatAdd             0      0.00%      1.57% # attempts to use FU when none available
system.switch_cpus.iq.fu_full::FloatCmp             0      0.00%      1.57% # attempts to use FU when none available
system.switch_cpus.iq.fu_full::FloatCvt             0      0.00%      1.57% # attempts to use FU when none available
system.switch_cpus.iq.fu_full::FloatMult            0      0.00%      1.57% # attempts to use FU when none available
system.switch_cpus.iq.fu_full::FloatMultAcc            0      0.00%      1.57% # attempts to use FU when none available
system.switch_cpus.iq.fu_full::FloatDiv             0      0.00%      1.57% # attempts to use FU when none available
system.switch_cpus.iq.fu_full::FloatMisc            0      0.00%      1.57% # attempts to use FU when none available
system.switch_cpus.iq.fu_full::FloatSqrt            0      0.00%      1.57% # attempts to use FU when none available
system.switch_cpus.iq.fu_full::SimdAdd              0      0.00%      1.57% # attempts to use FU when none available
system.switch_cpus.iq.fu_full::SimdAddAcc            0      0.00%      1.57% # attempts to use FU when none available
system.switch_cpus.iq.fu_full::SimdAlu         190849      1.47%      3.04% # attempts to use FU when none available
system.switch_cpus.iq.fu_full::SimdCmp              0      0.00%      3.04% # attempts to use FU when none available
system.switch_cpus.iq.fu_full::SimdCvt              0      0.00%      3.04% # attempts to use FU when none available
system.switch_cpus.iq.fu_full::SimdMisc             0      0.00%      3.04% # attempts to use FU when none available
system.switch_cpus.iq.fu_full::SimdMult             0      0.00%      3.04% # attempts to use FU when none available
system.switch_cpus.iq.fu_full::SimdMultAcc            0      0.00%      3.04% # attempts to use FU when none available
system.switch_cpus.iq.fu_full::SimdShift            0      0.00%      3.04% # attempts to use FU when none available
system.switch_cpus.iq.fu_full::SimdShiftAcc            0      0.00%      3.04% # attempts to use FU when none available
system.switch_cpus.iq.fu_full::SimdDiv              0      0.00%      3.04% # attempts to use FU when none available
system.switch_cpus.iq.fu_full::SimdSqrt             0      0.00%      3.04% # attempts to use FU when none available
system.switch_cpus.iq.fu_full::SimdFloatAdd        33123      0.26%      3.30% # attempts to use FU when none available
system.switch_cpus.iq.fu_full::SimdFloatAlu            0      0.00%      3.30% # attempts to use FU when none available
system.switch_cpus.iq.fu_full::SimdFloatCmp            0      0.00%      3.30% # attempts to use FU when none available
system.switch_cpus.iq.fu_full::SimdFloatCvt            6      0.00%      3.30% # attempts to use FU when none available
system.switch_cpus.iq.fu_full::SimdFloatDiv            0      0.00%      3.30% # attempts to use FU when none available
system.switch_cpus.iq.fu_full::SimdFloatMisc            0      0.00%      3.30% # attempts to use FU when none available
system.switch_cpus.iq.fu_full::SimdFloatMult       367776      2.83%      6.13% # attempts to use FU when none available
system.switch_cpus.iq.fu_full::SimdFloatMultAcc            0      0.00%      6.13% # attempts to use FU when none available
system.switch_cpus.iq.fu_full::SimdFloatSqrt            0      0.00%      6.13% # attempts to use FU when none available
system.switch_cpus.iq.fu_full::SimdReduceAdd            0      0.00%      6.13% # attempts to use FU when none available
system.switch_cpus.iq.fu_full::SimdReduceAlu            0      0.00%      6.13% # attempts to use FU when none available
system.switch_cpus.iq.fu_full::SimdReduceCmp            0      0.00%      6.13% # attempts to use FU when none available
system.switch_cpus.iq.fu_full::SimdFloatReduceAdd            0      0.00%      6.13% # attempts to use FU when none available
system.switch_cpus.iq.fu_full::SimdFloatReduceCmp            0      0.00%      6.13% # attempts to use FU when none available
system.switch_cpus.iq.fu_full::SimdAes              0      0.00%      6.13% # attempts to use FU when none available
system.switch_cpus.iq.fu_full::SimdAesMix            0      0.00%      6.13% # attempts to use FU when none available
system.switch_cpus.iq.fu_full::SimdSha1Hash            0      0.00%      6.13% # attempts to use FU when none available
system.switch_cpus.iq.fu_full::SimdSha1Hash2            0      0.00%      6.13% # attempts to use FU when none available
system.switch_cpus.iq.fu_full::SimdSha256Hash            0      0.00%      6.13% # attempts to use FU when none available
system.switch_cpus.iq.fu_full::SimdSha256Hash2            0      0.00%      6.13% # attempts to use FU when none available
system.switch_cpus.iq.fu_full::SimdShaSigma2            0      0.00%      6.13% # attempts to use FU when none available
system.switch_cpus.iq.fu_full::SimdShaSigma3            0      0.00%      6.13% # attempts to use FU when none available
system.switch_cpus.iq.fu_full::SimdPredAlu            0      0.00%      6.13% # attempts to use FU when none available
system.switch_cpus.iq.fu_full::MemRead        4278197     32.96%     39.10% # attempts to use FU when none available
system.switch_cpus.iq.fu_full::MemWrite            37      0.00%     39.10% # attempts to use FU when none available
system.switch_cpus.iq.fu_full::FloatMemRead      7834907     60.37%     99.47% # attempts to use FU when none available
system.switch_cpus.iq.fu_full::FloatMemWrite        69248      0.53%    100.00% # attempts to use FU when none available
system.switch_cpus.iq.fu_full::IprAccess            0      0.00%    100.00% # attempts to use FU when none available
system.switch_cpus.iq.fu_full::InstPrefetch            0      0.00%    100.00% # attempts to use FU when none available
system.switch_cpus.iq.int_alu_accesses       81613392                       # Number of integer alu accesses
system.switch_cpus.iq.int_inst_queue_reads   1046080560                       # Number of integer instruction queue reads
system.switch_cpus.iq.int_inst_queue_wakeup_accesses     70247349                       # Number of integer instruction queue wakeup accesses
system.switch_cpus.iq.int_inst_queue_writes     71872616                       # Number of integer instruction queue writes
system.switch_cpus.iq.iqInstsAdded          772609101                       # Number of instructions added to the IQ (excludes non-spec)
system.switch_cpus.iq.iqInstsIssued         810855518                       # Number of instructions issued
system.switch_cpus.iq.iqNonSpecInstsAdded         7256                       # Number of non-speculative instructions added to the IQ
system.switch_cpus.iq.iqSquashedInstsExamined      4922155                       # Number of squashed instructions iterated over during squash; mainly for profiling
system.switch_cpus.iq.iqSquashedInstsIssued         9196                       # Number of squashed instructions issued
system.switch_cpus.iq.iqSquashedNonSpecRemoved         7256                       # Number of squashed non-spec instructions that were removed
system.switch_cpus.iq.iqSquashedOperandsExamined      5393416                       # Number of squashed operands that are examined and possibly removed from graph
system.switch_cpus.iq.issued_per_cycle::samples    887039885                       # Number of insts issued each cycle
system.switch_cpus.iq.issued_per_cycle::mean     0.914114                       # Number of insts issued each cycle
system.switch_cpus.iq.issued_per_cycle::stdev     1.793454                       # Number of insts issued each cycle
system.switch_cpus.iq.issued_per_cycle::underflows            0      0.00%      0.00% # Number of insts issued each cycle
system.switch_cpus.iq.issued_per_cycle::0    635190924     71.61%     71.61% # Number of insts issued each cycle
system.switch_cpus.iq.issued_per_cycle::1     65622686      7.40%     79.01% # Number of insts issued each cycle
system.switch_cpus.iq.issued_per_cycle::2     47872127      5.40%     84.40% # Number of insts issued each cycle
system.switch_cpus.iq.issued_per_cycle::3     33844191      3.82%     88.22% # Number of insts issued each cycle
system.switch_cpus.iq.issued_per_cycle::4     38363845      4.32%     92.54% # Number of insts issued each cycle
system.switch_cpus.iq.issued_per_cycle::5     27069830      3.05%     95.59% # Number of insts issued each cycle
system.switch_cpus.iq.issued_per_cycle::6     21540449      2.43%     98.02% # Number of insts issued each cycle
system.switch_cpus.iq.issued_per_cycle::7     10377883      1.17%     99.19% # Number of insts issued each cycle
system.switch_cpus.iq.issued_per_cycle::8      7157950      0.81%    100.00% # Number of insts issued each cycle
system.switch_cpus.iq.issued_per_cycle::overflows            0      0.00%    100.00% # Number of insts issued each cycle
system.switch_cpus.iq.issued_per_cycle::min_value            0                       # Number of insts issued each cycle
system.switch_cpus.iq.issued_per_cycle::max_value            8                       # Number of insts issued each cycle
system.switch_cpus.iq.issued_per_cycle::total    887039885                       # Number of insts issued each cycle
system.switch_cpus.iq.rate                   0.779526                       # Inst issue rate
system.switch_cpus.iq.vec_alu_accesses              0                       # Number of vector alu accesses
system.switch_cpus.iq.vec_inst_queue_reads            0                       # Number of vector instruction queue reads
system.switch_cpus.iq.vec_inst_queue_wakeup_accesses            0                       # Number of vector instruction queue wakeup accesses
system.switch_cpus.iq.vec_inst_queue_writes            0                       # Number of vector instruction queue writes
system.switch_cpus.itb.rdAccesses                   0                       # TLB accesses on read requests
system.switch_cpus.itb.rdMisses                     0                       # TLB misses on read requests
system.switch_cpus.itb.wrAccesses            48263647                       # TLB accesses on write requests
system.switch_cpus.itb.wrMisses                   495                       # TLB misses on write requests
system.switch_cpus.memDep0.conflictingLoads      8584471                       # Number of conflicting loads.
system.switch_cpus.memDep0.conflictingStores       880112                       # Number of conflicting stores.
system.switch_cpus.memDep0.insertedLoads    135176132                       # Number of loads inserted to the mem dependence unit.
system.switch_cpus.memDep0.insertedStores     40180382                       # Number of stores inserted to the mem dependence unit.
system.switch_cpus.misc_regfile_reads       248382076                       # number of misc regfile reads
system.switch_cpus.numCycles               1040190467                       # number of cpu cycles simulated
system.switch_cpus.numWorkItemsCompleted            0                       # number of work items this cpu completed
system.switch_cpus.numWorkItemsStarted              0                       # number of work items this cpu started
system.switch_cpus.rename.BlockCycles        12845046                       # Number of cycles rename is blocking
system.switch_cpus.rename.CommittedMaps     748425764                       # Number of HB maps that are committed
system.switch_cpus.rename.IQFullEvents         951636                       # Number of times rename has blocked due to IQ full
system.switch_cpus.rename.IdleCycles        754891619                       # Number of cycles rename is idle
system.switch_cpus.rename.LQFullEvents        2644226                       # Number of times rename has blocked due to LQ full
system.switch_cpus.rename.RenameLookups    1847185515                       # Number of register rename lookups that rename has made
system.switch_cpus.rename.RenamedInsts      773178425                       # Number of instructions processed by rename
system.switch_cpus.rename.RenamedOperands    753613077                       # Number of destination operands rename has renamed
system.switch_cpus.rename.RunCycles         114981780                       # Number of cycles rename is running
system.switch_cpus.rename.SquashCycles         403831                       # Number of cycles rename is squashing
system.switch_cpus.rename.UnblockCycles       3908255                       # Number of cycles rename is unblocking
system.switch_cpus.rename.UndoneMaps          5187298                       # Number of HB maps that are undone due to squashing
system.switch_cpus.rename.fp_rename_lookups   1177185767                       # Number of floating rename lookups
system.switch_cpus.rename.int_rename_lookups    408194692                       # Number of integer rename lookups
system.switch_cpus.rename.serializeStallCycles         9272                       # count of cycles rename stalled for serializing inst
system.switch_cpus.rename.serializingInsts         7316                       # count of serializing insts renamed
system.switch_cpus.rename.skidInsts           9714902                       # count of insts added to the skid buffer
system.switch_cpus.rename.tempSerializingInsts         2217                       # count of temporary serializing insts renamed
system.switch_cpus.rob.rob_reads           1631167430                       # The number of ROB reads
system.switch_cpus.rob.rob_writes          1546043192                       # The number of ROB writes
system.switch_cpus.timesIdled                16633647                       # Number of times that the entire CPU went into an idle state and unscheduled itself
system.tol2bus.snoop_filter.hit_multi_requests            0                       # Number of requests hitting in the snoop filter with multiple (>1) holders of the requested data.
system.tol2bus.snoop_filter.hit_multi_snoops            0                       # Number of snoops hitting in the snoop filter with multiple (>1) holders of the requested data.
system.tol2bus.snoop_filter.hit_single_requests     29880787                       # Number of requests hitting in the snoop filter with a single holder of the requested data.
system.tol2bus.snoop_filter.hit_single_snoops       150090                       # Number of snoops hitting in the snoop filter with a single holder of the requested data.
system.tol2bus.snoop_filter.tot_requests     56520524                       # Total number of requests made to the snoop filter.
system.tol2bus.snoop_filter.tot_snoops         150090                       # Total number of snoops made to the snoop filter.
system.membus.pwrStateResidencyTicks::UNDEFINED 1589656100500                       # Cumulative time (in ticks) in various power states
system.membus.trans_dist::ReadResp             559640                       # Transaction distribution
system.membus.trans_dist::WritebackDirty      2949382                       # Transaction distribution
system.membus.trans_dist::CleanEvict           551720                       # Transaction distribution
system.membus.trans_dist::ReadExReq           2941457                       # Transaction distribution
system.membus.trans_dist::ReadExResp          2941457                       # Transaction distribution
system.membus.trans_dist::ReadSharedReq        559640                       # Transaction distribution
system.membus.pkt_count_system.l2.mem_side::system.mem_ctrls.port     10503296                       # Packet count per connected master and slave (bytes)
system.membus.pkt_count_system.l2.mem_side::total     10503296                       # Packet count per connected master and slave (bytes)
system.membus.pkt_count::total               10503296                       # Packet count per connected master and slave (bytes)
system.membus.pkt_size_system.l2.mem_side::system.mem_ctrls.port    412830656                       # Cumulative packet size per connected master and slave (bytes)
system.membus.pkt_size_system.l2.mem_side::total    412830656                       # Cumulative packet size per connected master and slave (bytes)
system.membus.pkt_size::total               412830656                       # Cumulative packet size per connected master and slave (bytes)
system.membus.snoops                                0                       # Total snoops (count)
system.membus.snoopTraffic                          0                       # Total snoop traffic (bytes)
system.membus.snoop_fanout::samples           3501097                       # Request fanout histogram
system.membus.snoop_fanout::mean                    0                       # Request fanout histogram
system.membus.snoop_fanout::stdev                   0                       # Request fanout histogram
system.membus.snoop_fanout::underflows              0      0.00%      0.00% # Request fanout histogram
system.membus.snoop_fanout::0                 3501097    100.00%    100.00% # Request fanout histogram
system.membus.snoop_fanout::1                       0      0.00%    100.00% # Request fanout histogram
system.membus.snoop_fanout::overflows               0      0.00%    100.00% # Request fanout histogram
system.membus.snoop_fanout::min_value               0                       # Request fanout histogram
system.membus.snoop_fanout::max_value               0                       # Request fanout histogram
system.membus.snoop_fanout::total             3501097                       # Request fanout histogram
system.membus.reqLayer2.occupancy         19986347876                       # Layer occupancy (ticks)
system.membus.reqLayer2.utilization               3.8                       # Layer utilization (%)
system.membus.respLayer1.occupancy        17963188572                       # Layer occupancy (ticks)
system.membus.respLayer1.utilization              3.5                       # Layer utilization (%)
system.switch_cpus.pwrStateResidencyTicks::OFF 1589656100500                       # Cumulative time (in ticks) in various power states
system.switch_cpus.dtb.walker.pwrStateResidencyTicks::UNDEFINED 1589656100500                       # Cumulative time (in ticks) in various power states
system.switch_cpus.itb.walker.pwrStateResidencyTicks::UNDEFINED 1589656100500                       # Cumulative time (in ticks) in various power states
system.tol2bus.pwrStateResidencyTicks::UNDEFINED 1589656100500                       # Cumulative time (in ticks) in various power states
system.tol2bus.trans_dist::ReadResp          23530608                       # Transaction distribution
system.tol2bus.trans_dist::WritebackDirty      5940020                       # Transaction distribution
system.tol2bus.trans_dist::WritebackClean     23017142                       # Transaction distribution
system.tol2bus.trans_dist::CleanEvict         1172625                       # Transaction distribution
system.tol2bus.trans_dist::ReadExReq          2947988                       # Transaction distribution
system.tol2bus.trans_dist::ReadExResp         2947988                       # Transaction distribution
system.tol2bus.trans_dist::ReadCleanReq      23017143                       # Transaction distribution
system.tol2bus.trans_dist::ReadSharedReq       513466                       # Transaction distribution
system.tol2bus.pkt_count_system.cpu.icache.mem_side::system.l2.cpu_side     69051427                       # Packet count per connected master and slave (bytes)
system.tol2bus.pkt_count_system.cpu.dcache.mem_side::system.l2.cpu_side     10384362                       # Packet count per connected master and slave (bytes)
system.tol2bus.pkt_count::total              79435789                       # Packet count per connected master and slave (bytes)
system.tol2bus.pkt_size_system.cpu.icache.mem_side::system.l2.cpu_side   2946194176                       # Cumulative packet size per connected master and slave (bytes)
system.tol2bus.pkt_size_system.cpu.dcache.mem_side::system.l2.cpu_side    412933888                       # Cumulative packet size per connected master and slave (bytes)
system.tol2bus.pkt_size::total             3359128064                       # Cumulative packet size per connected master and slave (bytes)
system.tol2bus.snoops                         3651191                       # Total snoops (count)
system.tol2bus.snoopTraffic                 188760448                       # Total snoop traffic (bytes)
system.tol2bus.snoop_fanout::samples         30290928                       # Request fanout histogram
system.tol2bus.snoop_fanout::mean            0.004955                       # Request fanout histogram
system.tol2bus.snoop_fanout::stdev           0.070217                       # Request fanout histogram
system.tol2bus.snoop_fanout::underflows             0      0.00%      0.00% # Request fanout histogram
system.tol2bus.snoop_fanout::0               30140838     99.50%     99.50% # Request fanout histogram
system.tol2bus.snoop_fanout::1                 150090      0.50%    100.00% # Request fanout histogram
system.tol2bus.snoop_fanout::2                      0      0.00%    100.00% # Request fanout histogram
system.tol2bus.snoop_fanout::3                      0      0.00%    100.00% # Request fanout histogram
system.tol2bus.snoop_fanout::4                      0      0.00%    100.00% # Request fanout histogram
system.tol2bus.snoop_fanout::overflows              0      0.00%    100.00% # Request fanout histogram
system.tol2bus.snoop_fanout::min_value              0                       # Request fanout histogram
system.tol2bus.snoop_fanout::max_value              1                       # Request fanout histogram
system.tol2bus.snoop_fanout::total           30290928                       # Request fanout histogram
system.tol2bus.reqLayer0.occupancy        56046142173                       # Layer occupancy (ticks)
system.tol2bus.reqLayer0.utilization             10.8                       # Layer utilization (%)
system.tol2bus.respLayer1.occupancy        5192183495                       # Layer occupancy (ticks)
system.tol2bus.respLayer1.utilization             1.0                       # Layer utilization (%)
system.tol2bus.respLayer0.occupancy       34525730964                       # Layer occupancy (ticks)
system.tol2bus.respLayer0.utilization             6.6                       # Layer utilization (%)
system.voltage_domain.voltage                       1                       # Voltage in Volts
system.clk_domain.clock                          1000                       # Clock period in ticks
system.l2.pwrStateResidencyTicks::UNDEFINED 1589656100500                       # Cumulative time (in ticks) in various power states
system.l2.demand_hits::.switch_cpus.inst     22924838                       # number of demand (read+write) hits
system.l2.demand_hits::.switch_cpus.data        52662                       # number of demand (read+write) hits
system.l2.demand_hits::total                 22977500                       # number of demand (read+write) hits
system.l2.overall_hits::.switch_cpus.inst     22924838                       # number of overall hits
system.l2.overall_hits::.switch_cpus.data        52662                       # number of overall hits
system.l2.overall_hits::total                22977500                       # number of overall hits
system.l2.demand_misses::.switch_cpus.inst        92305                       # number of demand (read+write) misses
system.l2.demand_misses::.switch_cpus.data      3408792                       # number of demand (read+write) misses
system.l2.demand_misses::total                3501097                       # number of demand (read+write) misses
system.l2.overall_misses::.switch_cpus.inst        92305                       # number of overall misses
system.l2.overall_misses::.switch_cpus.data      3408792                       # number of overall misses
system.l2.overall_misses::total               3501097                       # number of overall misses
system.l2.demand_miss_latency::.switch_cpus.inst   8324274035                       # number of demand (read+write) miss cycles
system.l2.demand_miss_latency::.switch_cpus.data 181049683589                       # number of demand (read+write) miss cycles
system.l2.demand_miss_latency::total     189373957624                       # number of demand (read+write) miss cycles
system.l2.overall_miss_latency::.switch_cpus.inst   8324274035                       # number of overall miss cycles
system.l2.overall_miss_latency::.switch_cpus.data 181049683589                       # number of overall miss cycles
system.l2.overall_miss_latency::total    189373957624                       # number of overall miss cycles
system.l2.demand_accesses::.switch_cpus.inst     23017143                       # number of demand (read+write) accesses
system.l2.demand_accesses::.switch_cpus.data      3461454                       # number of demand (read+write) accesses
system.l2.demand_accesses::total             26478597                       # number of demand (read+write) accesses
system.l2.overall_accesses::.switch_cpus.inst     23017143                       # number of overall (read+write) accesses
system.l2.overall_accesses::.switch_cpus.data      3461454                       # number of overall (read+write) accesses
system.l2.overall_accesses::total            26478597                       # number of overall (read+write) accesses
system.l2.demand_miss_rate::.switch_cpus.inst     0.004010                       # miss rate for demand accesses
system.l2.demand_miss_rate::.switch_cpus.data     0.984786                       # miss rate for demand accesses
system.l2.demand_miss_rate::total            0.132224                       # miss rate for demand accesses
system.l2.overall_miss_rate::.switch_cpus.inst     0.004010                       # miss rate for overall accesses
system.l2.overall_miss_rate::.switch_cpus.data     0.984786                       # miss rate for overall accesses
system.l2.overall_miss_rate::total           0.132224                       # miss rate for overall accesses
system.l2.demand_avg_miss_latency::.switch_cpus.inst 90182.265695                       # average overall miss latency
system.l2.demand_avg_miss_latency::.switch_cpus.data 53112.564096                       # average overall miss latency
system.l2.demand_avg_miss_latency::total 54089.891718                       # average overall miss latency
system.l2.overall_avg_miss_latency::.switch_cpus.inst 90182.265695                       # average overall miss latency
system.l2.overall_avg_miss_latency::.switch_cpus.data 53112.564096                       # average overall miss latency
system.l2.overall_avg_miss_latency::total 54089.891718                       # average overall miss latency
system.l2.blocked_cycles::no_mshrs          308688175                       # number of cycles access was blocked
system.l2.blocked_cycles::no_targets                0                       # number of cycles access was blocked
system.l2.blocked::no_mshrs                   3501097                       # number of cycles access was blocked
system.l2.blocked::no_targets                       0                       # number of cycles access was blocked
system.l2.avg_blocked_cycles::no_mshrs      88.168987                       # average number of cycles each access was blocked
system.l2.avg_blocked_cycles::no_targets          nan                       # average number of cycles each access was blocked
system.l2.writebacks::.writebacks             2949382                       # number of writebacks
system.l2.writebacks::total                   2949382                       # number of writebacks
system.l2.demand_mshr_misses::.switch_cpus.inst        92305                       # number of demand (read+write) MSHR misses
system.l2.demand_mshr_misses::.switch_cpus.data      3408792                       # number of demand (read+write) MSHR misses
system.l2.demand_mshr_misses::total           3501097                       # number of demand (read+write) MSHR misses
system.l2.overall_mshr_misses::.switch_cpus.inst        92305                       # number of overall MSHR misses
system.l2.overall_mshr_misses::.switch_cpus.data      3408792                       # number of overall MSHR misses
system.l2.overall_mshr_misses::total          3501097                       # number of overall MSHR misses
system.l2.demand_mshr_miss_latency::.switch_cpus.inst   7401224035                       # number of demand (read+write) MSHR miss cycles
system.l2.demand_mshr_miss_latency::.switch_cpus.data 146961763589                       # number of demand (read+write) MSHR miss cycles
system.l2.demand_mshr_miss_latency::total 154362987624                       # number of demand (read+write) MSHR miss cycles
system.l2.overall_mshr_miss_latency::.switch_cpus.inst   7401224035                       # number of overall MSHR miss cycles
system.l2.overall_mshr_miss_latency::.switch_cpus.data 146961763589                       # number of overall MSHR miss cycles
system.l2.overall_mshr_miss_latency::total 154362987624                       # number of overall MSHR miss cycles
system.l2.demand_mshr_miss_rate::.switch_cpus.inst     0.004010                       # mshr miss rate for demand accesses
system.l2.demand_mshr_miss_rate::.switch_cpus.data     0.984786                       # mshr miss rate for demand accesses
system.l2.demand_mshr_miss_rate::total       0.132224                       # mshr miss rate for demand accesses
system.l2.overall_mshr_miss_rate::.switch_cpus.inst     0.004010                       # mshr miss rate for overall accesses
system.l2.overall_mshr_miss_rate::.switch_cpus.data     0.984786                       # mshr miss rate for overall accesses
system.l2.overall_mshr_miss_rate::total      0.132224                       # mshr miss rate for overall accesses
system.l2.demand_avg_mshr_miss_latency::.switch_cpus.inst 80182.265695                       # average overall mshr miss latency
system.l2.demand_avg_mshr_miss_latency::.switch_cpus.data 43112.564096                       # average overall mshr miss latency
system.l2.demand_avg_mshr_miss_latency::total 44089.891718                       # average overall mshr miss latency
system.l2.overall_avg_mshr_miss_latency::.switch_cpus.inst 80182.265695                       # average overall mshr miss latency
system.l2.overall_avg_mshr_miss_latency::.switch_cpus.data 43112.564096                       # average overall mshr miss latency
system.l2.overall_avg_mshr_miss_latency::total 44089.891718                       # average overall mshr miss latency
system.l2.replacements                        3651191                       # number of replacements
system.l2.WritebackDirty_hits::.writebacks      2990638                       # number of WritebackDirty hits
system.l2.WritebackDirty_hits::total          2990638                       # number of WritebackDirty hits
system.l2.WritebackDirty_accesses::.writebacks      2990638                       # number of WritebackDirty accesses(hits+misses)
system.l2.WritebackDirty_accesses::total      2990638                       # number of WritebackDirty accesses(hits+misses)
system.l2.WritebackClean_hits::.writebacks     23017142                       # number of WritebackClean hits
system.l2.WritebackClean_hits::total         23017142                       # number of WritebackClean hits
system.l2.WritebackClean_accesses::.writebacks     23017142                       # number of WritebackClean accesses(hits+misses)
system.l2.WritebackClean_accesses::total     23017142                       # number of WritebackClean accesses(hits+misses)
system.l2.CleanEvict_mshr_misses::.writebacks            1                       # number of CleanEvict MSHR misses
system.l2.CleanEvict_mshr_misses::total             1                       # number of CleanEvict MSHR misses
system.l2.CleanEvict_mshr_miss_rate::.writebacks          inf                       # mshr miss rate for CleanEvict accesses
system.l2.CleanEvict_mshr_miss_rate::total          inf                       # mshr miss rate for CleanEvict accesses
system.l2.ReadExReq_hits::.switch_cpus.data         6531                       # number of ReadExReq hits
system.l2.ReadExReq_hits::total                  6531                       # number of ReadExReq hits
system.l2.ReadExReq_misses::.switch_cpus.data      2941457                       # number of ReadExReq misses
system.l2.ReadExReq_misses::total             2941457                       # number of ReadExReq misses
system.l2.ReadExReq_miss_latency::.switch_cpus.data 141684936903                       # number of ReadExReq miss cycles
system.l2.ReadExReq_miss_latency::total  141684936903                       # number of ReadExReq miss cycles
system.l2.ReadExReq_accesses::.switch_cpus.data      2947988                       # number of ReadExReq accesses(hits+misses)
system.l2.ReadExReq_accesses::total           2947988                       # number of ReadExReq accesses(hits+misses)
system.l2.ReadExReq_miss_rate::.switch_cpus.data     0.997785                       # miss rate for ReadExReq accesses
system.l2.ReadExReq_miss_rate::total         0.997785                       # miss rate for ReadExReq accesses
system.l2.ReadExReq_avg_miss_latency::.switch_cpus.data 48168.284256                       # average ReadExReq miss latency
system.l2.ReadExReq_avg_miss_latency::total 48168.284256                       # average ReadExReq miss latency
system.l2.ReadExReq_mshr_misses::.switch_cpus.data      2941457                       # number of ReadExReq MSHR misses
system.l2.ReadExReq_mshr_misses::total        2941457                       # number of ReadExReq MSHR misses
system.l2.ReadExReq_mshr_miss_latency::.switch_cpus.data 112270366903                       # number of ReadExReq MSHR miss cycles
system.l2.ReadExReq_mshr_miss_latency::total 112270366903                       # number of ReadExReq MSHR miss cycles
system.l2.ReadExReq_mshr_miss_rate::.switch_cpus.data     0.997785                       # mshr miss rate for ReadExReq accesses
system.l2.ReadExReq_mshr_miss_rate::total     0.997785                       # mshr miss rate for ReadExReq accesses
system.l2.ReadExReq_avg_mshr_miss_latency::.switch_cpus.data 38168.284256                       # average ReadExReq mshr miss latency
system.l2.ReadExReq_avg_mshr_miss_latency::total 38168.284256                       # average ReadExReq mshr miss latency
system.l2.ReadCleanReq_hits::.switch_cpus.inst     22924838                       # number of ReadCleanReq hits
system.l2.ReadCleanReq_hits::total           22924838                       # number of ReadCleanReq hits
system.l2.ReadCleanReq_misses::.switch_cpus.inst        92305                       # number of ReadCleanReq misses
system.l2.ReadCleanReq_misses::total            92305                       # number of ReadCleanReq misses
system.l2.ReadCleanReq_miss_latency::.switch_cpus.inst   8324274035                       # number of ReadCleanReq miss cycles
system.l2.ReadCleanReq_miss_latency::total   8324274035                       # number of ReadCleanReq miss cycles
system.l2.ReadCleanReq_accesses::.switch_cpus.inst     23017143                       # number of ReadCleanReq accesses(hits+misses)
system.l2.ReadCleanReq_accesses::total       23017143                       # number of ReadCleanReq accesses(hits+misses)
system.l2.ReadCleanReq_miss_rate::.switch_cpus.inst     0.004010                       # miss rate for ReadCleanReq accesses
system.l2.ReadCleanReq_miss_rate::total      0.004010                       # miss rate for ReadCleanReq accesses
system.l2.ReadCleanReq_avg_miss_latency::.switch_cpus.inst 90182.265695                       # average ReadCleanReq miss latency
system.l2.ReadCleanReq_avg_miss_latency::total 90182.265695                       # average ReadCleanReq miss latency
system.l2.ReadCleanReq_mshr_misses::.switch_cpus.inst        92305                       # number of ReadCleanReq MSHR misses
system.l2.ReadCleanReq_mshr_misses::total        92305                       # number of ReadCleanReq MSHR misses
system.l2.ReadCleanReq_mshr_miss_latency::.switch_cpus.inst   7401224035                       # number of ReadCleanReq MSHR miss cycles
system.l2.ReadCleanReq_mshr_miss_latency::total   7401224035                       # number of ReadCleanReq MSHR miss cycles
system.l2.ReadCleanReq_mshr_miss_rate::.switch_cpus.inst     0.004010                       # mshr miss rate for ReadCleanReq accesses
system.l2.ReadCleanReq_mshr_miss_rate::total     0.004010                       # mshr miss rate for ReadCleanReq accesses
system.l2.ReadCleanReq_avg_mshr_miss_latency::.switch_cpus.inst 80182.265695                       # average ReadCleanReq mshr miss latency
system.l2.ReadCleanReq_avg_mshr_miss_latency::total 80182.265695                       # average ReadCleanReq mshr miss latency
system.l2.ReadSharedReq_hits::.switch_cpus.data        46131                       # number of ReadSharedReq hits
system.l2.ReadSharedReq_hits::total             46131                       # number of ReadSharedReq hits
system.l2.ReadSharedReq_misses::.switch_cpus.data       467335                       # number of ReadSharedReq misses
system.l2.ReadSharedReq_misses::total          467335                       # number of ReadSharedReq misses
system.l2.ReadSharedReq_miss_latency::.switch_cpus.data  39364746686                       # number of ReadSharedReq miss cycles
system.l2.ReadSharedReq_miss_latency::total  39364746686                       # number of ReadSharedReq miss cycles
system.l2.ReadSharedReq_accesses::.switch_cpus.data       513466                       # number of ReadSharedReq accesses(hits+misses)
system.l2.ReadSharedReq_accesses::total        513466                       # number of ReadSharedReq accesses(hits+misses)
[...]
system.cpu.itb_walker_cache.blocked_cycles::no_mshrs            0                       # number of cycles access was blocked
system.cpu.itb_walker_cache.blocked_cycles::no_targets            0                       # number of cycles access was blocked
system.cpu.itb_walker_cache.blocked::no_mshrs            0                       # number of cycles access was blocked
system.cpu.itb_walker_cache.blocked::no_targets            0                       # number of cycles access was blocked
system.cpu.itb_walker_cache.avg_blocked_cycles::no_mshrs          nan                       # average number of cycles each access was blocked
system.cpu.itb_walker_cache.avg_blocked_cycles::no_targets          nan                       # average number of cycles each access was blocked
system.cpu.itb_walker_cache.replacements            0                       # number of replacements
system.cpu.itb_walker_cache.tags.pwrStateResidencyTicks::UNDEFINED 1589656100500                       # Cumulative time (in ticks) in various power states
system.cpu.itb_walker_cache.tags.tagsinuse            0                       # Cycle average of tags in use
system.cpu.itb_walker_cache.tags.total_refs            0                       # Total number of references to valid blocks.
system.cpu.itb_walker_cache.tags.sampled_refs            0                       # Sample count of references to valid blocks.
system.cpu.itb_walker_cache.tags.avg_refs          nan                       # Average number of references to valid blocks.
system.cpu.itb_walker_cache.tags.warmup_cycle            0                       # Cycle when the warmup percentage was hit.
system.cpu.itb_walker_cache.tags.tag_accesses            0                       # Number of tag accesses
system.cpu.itb_walker_cache.tags.data_accesses            0                       # Number of data accesses
system.cpu.itb.walker.pwrStateResidencyTicks::UNDEFINED 1589656100500                       # Cumulative time (in ticks) in various power states
system.cpu.dtb_walker_cache.pwrStateResidencyTicks::UNDEFINED 1589656100500                       # Cumulative time (in ticks) in various power states
system.cpu.dtb_walker_cache.blocked_cycles::no_mshrs            0                       # number of cycles access was blocked
system.cpu.dtb_walker_cache.blocked_cycles::no_targets            0                       # number of cycles access was blocked
system.cpu.dtb_walker_cache.blocked::no_mshrs            0                       # number of cycles access was blocked
system.cpu.dtb_walker_cache.blocked::no_targets            0                       # number of cycles access was blocked
system.cpu.dtb_walker_cache.avg_blocked_cycles::no_mshrs          nan                       # average number of cycles each access was blocked
system.cpu.dtb_walker_cache.avg_blocked_cycles::no_targets          nan                       # average number of cycles each access was blocked
system.cpu.dtb_walker_cache.replacements            0                       # number of replacements
system.cpu.dtb_walker_cache.tags.pwrStateResidencyTicks::UNDEFINED 1589656100500                       # Cumulative time (in ticks) in various power states
system.cpu.dtb_walker_cache.tags.tagsinuse            0                       # Cycle average of tags in use
system.cpu.dtb_walker_cache.tags.total_refs            0                       # Total number of references to valid blocks.
system.cpu.dtb_walker_cache.tags.sampled_refs            0                       # Sample count of references to valid blocks.
system.cpu.dtb_walker_cache.tags.avg_refs          nan                       # Average number of references to valid blocks.
system.cpu.dtb_walker_cache.tags.warmup_cycle            0                       # Cycle when the warmup percentage was hit.
system.cpu.dtb_walker_cache.tags.tag_accesses            0                       # Number of tag accesses
system.cpu.dtb_walker_cache.tags.data_accesses            0                       # Number of data accesses
system.cpu.dcache.pwrStateResidencyTicks::UNDEFINED 1589656100500                       # Cumulative time (in ticks) in various power states
system.cpu.dcache.demand_hits::.cpu.data    347848790                       # number of demand (read+write) hits
system.cpu.dcache.demand_hits::.switch_cpus.data    161244963                       # number of demand (read+write) hits
system.cpu.dcache.demand_hits::total        509093753                       # number of demand (read+write) hits
system.cpu.dcache.overall_hits::.cpu.data    347853499                       # number of overall hits
system.cpu.dcache.overall_hits::.switch_cpus.data    161244963                       # number of overall hits
system.cpu.dcache.overall_hits::total       509098462                       # number of overall hits
system.cpu.dcache.demand_misses::.cpu.data     10341405                       # number of demand (read+write) misses
system.cpu.dcache.demand_misses::.switch_cpus.data      3461454                       # number of demand (read+write) misses
system.cpu.dcache.demand_misses::total       13802859                       # number of demand (read+write) misses
system.cpu.dcache.overall_misses::.cpu.data     10342058                       # number of overall misses
system.cpu.dcache.overall_misses::.switch_cpus.data      3461454                       # number of overall misses
system.cpu.dcache.overall_misses::total      13803512                       # number of overall misses
system.cpu.dcache.demand_miss_latency::.switch_cpus.data 194507691839                       # number of demand (read+write) miss cycles
system.cpu.dcache.demand_miss_latency::total 194507691839                       # number of demand (read+write) miss cycles
system.cpu.dcache.overall_miss_latency::.switch_cpus.data 194507691839                       # number of overall miss cycles
system.cpu.dcache.overall_miss_latency::total 194507691839                       # number of overall miss cycles
system.cpu.dcache.demand_accesses::.cpu.data    358190195                       # number of demand (read+write) accesses
system.cpu.dcache.demand_accesses::.switch_cpus.data    164706417                       # number of demand (read+write) accesses
system.cpu.dcache.demand_accesses::total    522896612                       # number of demand (read+write) accesses
system.cpu.dcache.overall_accesses::.cpu.data    358195557                       # number of overall (read+write) accesses
system.cpu.dcache.overall_accesses::.switch_cpus.data    164706417                       # number of overall (read+write) accesses
system.cpu.dcache.overall_accesses::total    522901974                       # number of overall (read+write) accesses
system.cpu.dcache.demand_miss_rate::.cpu.data     0.028871                       # miss rate for demand accesses
system.cpu.dcache.demand_miss_rate::.switch_cpus.data     0.021016                       # miss rate for demand accesses
system.cpu.dcache.demand_miss_rate::total     0.026397                       # miss rate for demand accesses
system.cpu.dcache.overall_miss_rate::.cpu.data     0.028873                       # miss rate for overall accesses
system.cpu.dcache.overall_miss_rate::.switch_cpus.data     0.021016                       # miss rate for overall accesses
system.cpu.dcache.overall_miss_rate::total     0.026398                       # miss rate for overall accesses
system.cpu.dcache.demand_avg_miss_latency::.switch_cpus.data 56192.482072                       # average overall miss latency
system.cpu.dcache.demand_avg_miss_latency::total 14091.840816                       # average overall miss latency
system.cpu.dcache.overall_avg_miss_latency::.switch_cpus.data 56192.482072                       # average overall miss latency
system.cpu.dcache.overall_avg_miss_latency::total 14091.174176                       # average overall miss latency
system.cpu.dcache.blocked_cycles::no_mshrs    382043912                       # number of cycles access was blocked
system.cpu.dcache.blocked_cycles::no_targets            0                       # number of cycles access was blocked
system.cpu.dcache.blocked::no_mshrs           3461454                       # number of cycles access was blocked
system.cpu.dcache.blocked::no_targets               0                       # number of cycles access was blocked
system.cpu.dcache.avg_blocked_cycles::no_mshrs   110.370934                       # average number of cycles each access was blocked
system.cpu.dcache.avg_blocked_cycles::no_targets          nan                       # average number of cycles each access was blocked
system.cpu.dcache.writebacks::.writebacks     12274731                       # number of writebacks
system.cpu.dcache.writebacks::total          12274731                       # number of writebacks
system.cpu.dcache.demand_mshr_misses::.switch_cpus.data      3461454                       # number of demand (read+write) MSHR misses
system.cpu.dcache.demand_mshr_misses::total      3461454                       # number of demand (read+write) MSHR misses
system.cpu.dcache.overall_mshr_misses::.switch_cpus.data      3461454                       # number of overall MSHR misses
system.cpu.dcache.overall_mshr_misses::total      3461454                       # number of overall MSHR misses
system.cpu.dcache.demand_mshr_miss_latency::.switch_cpus.data 191046237839                       # number of demand (read+write) MSHR miss cycles
system.cpu.dcache.demand_mshr_miss_latency::total 191046237839                       # number of demand (read+write) MSHR miss cycles
system.cpu.dcache.overall_mshr_miss_latency::.switch_cpus.data 191046237839                       # number of overall MSHR miss cycles
system.cpu.dcache.overall_mshr_miss_latency::total 191046237839                       # number of overall MSHR miss cycles
system.cpu.dcache.demand_mshr_miss_rate::.switch_cpus.data     0.021016                       # mshr miss rate for demand accesses
system.cpu.dcache.demand_mshr_miss_rate::total     0.006620                       # mshr miss rate for demand accesses
system.cpu.dcache.overall_mshr_miss_rate::.switch_cpus.data     0.021016                       # mshr miss rate for overall accesses
system.cpu.dcache.overall_mshr_miss_rate::total     0.006620                       # mshr miss rate for overall accesses
system.cpu.dcache.demand_avg_mshr_miss_latency::.switch_cpus.data 55192.482072                       # average overall mshr miss latency
system.cpu.dcache.demand_avg_mshr_miss_latency::total 55192.482072                       # average overall mshr miss latency
system.cpu.dcache.overall_avg_mshr_miss_latency::.switch_cpus.data 55192.482072                       # average overall mshr miss latency
system.cpu.dcache.overall_avg_mshr_miss_latency::total 55192.482072                       # average overall mshr miss latency
system.cpu.dcache.replacements               13803256                       # number of replacements
system.cpu.dcache.ReadReq_hits::.cpu.data    272510041                       # number of ReadReq hits
system.cpu.dcache.ReadReq_hits::.switch_cpus.data    124241686                       # number of ReadReq hits
system.cpu.dcache.ReadReq_hits::total       396751727                       # number of ReadReq hits
system.cpu.dcache.ReadReq_misses::.cpu.data      2588983                       # number of ReadReq misses
system.cpu.dcache.ReadReq_misses::.switch_cpus.data       513466                       # number of ReadReq misses
system.cpu.dcache.ReadReq_misses::total       3102449                       # number of ReadReq misses
system.cpu.dcache.ReadReq_miss_latency::.switch_cpus.data  42194051500                       # number of ReadReq miss cycles
system.cpu.dcache.ReadReq_miss_latency::total  42194051500                       # number of ReadReq miss cycles
system.cpu.dcache.ReadReq_accesses::.cpu.data    275099024                       # number of ReadReq accesses(hits+misses)
system.cpu.dcache.ReadReq_accesses::.switch_cpus.data    124755152                       # number of ReadReq accesses(hits+misses)
system.cpu.dcache.ReadReq_accesses::total    399854176                       # number of ReadReq accesses(hits+misses)
system.cpu.dcache.ReadReq_miss_rate::.cpu.data     0.009411                       # miss rate for ReadReq accesses
system.cpu.dcache.ReadReq_miss_rate::.switch_cpus.data     0.004116                       # miss rate for ReadReq accesses
system.cpu.dcache.ReadReq_miss_rate::total     0.007759                       # miss rate for ReadReq accesses
system.cpu.dcache.ReadReq_avg_miss_latency::.switch_cpus.data 82174.966794                       # average ReadReq miss latency
system.cpu.dcache.ReadReq_avg_miss_latency::total 13600.240165                       # average ReadReq miss latency
system.cpu.dcache.ReadReq_mshr_misses::.switch_cpus.data       513466                       # number of ReadReq MSHR misses
system.cpu.dcache.ReadReq_mshr_misses::total       513466                       # number of ReadReq MSHR misses
system.cpu.dcache.ReadReq_mshr_miss_latency::.switch_cpus.data  41680585500                       # number of ReadReq MSHR miss cycles
system.cpu.dcache.ReadReq_mshr_miss_latency::total  41680585500                       # number of ReadReq MSHR miss cycles
system.cpu.dcache.ReadReq_mshr_miss_rate::.switch_cpus.data     0.004116                       # mshr miss rate for ReadReq accesses
system.cpu.dcache.ReadReq_mshr_miss_rate::total     0.001284                       # mshr miss rate for ReadReq accesses
system.cpu.dcache.ReadReq_avg_mshr_miss_latency::.switch_cpus.data 81174.966794                       # average ReadReq mshr miss latency
system.cpu.dcache.ReadReq_avg_mshr_miss_latency::total 81174.966794                       # average ReadReq mshr miss latency
system.cpu.dcache.WriteReq_hits::.cpu.data     75338749                       # number of WriteReq hits
system.cpu.dcache.WriteReq_hits::.switch_cpus.data     37003277                       # number of WriteReq hits
system.cpu.dcache.WriteReq_hits::total      112342026                       # number of WriteReq hits
system.cpu.dcache.WriteReq_misses::.cpu.data      7752422                       # number of WriteReq misses
system.cpu.dcache.WriteReq_misses::.switch_cpus.data      2947988                       # number of WriteReq misses
system.cpu.dcache.WriteReq_misses::total     10700410                       # number of WriteReq misses
system.cpu.dcache.WriteReq_miss_latency::.switch_cpus.data 152313640339                       # number of WriteReq miss cycles
system.cpu.dcache.WriteReq_miss_latency::total 152313640339                       # number of WriteReq miss cycles
system.cpu.dcache.WriteReq_accesses::.cpu.data     83091171                       # number of WriteReq accesses(hits+misses)
system.cpu.dcache.WriteReq_accesses::.switch_cpus.data     39951265                       # number of WriteReq accesses(hits+misses)
system.cpu.dcache.WriteReq_accesses::total    123042436                       # number of WriteReq accesses(hits+misses)
system.cpu.dcache.WriteReq_miss_rate::.cpu.data     0.093300                       # miss rate for WriteReq accesses
system.cpu.dcache.WriteReq_miss_rate::.switch_cpus.data     0.073790                       # miss rate for WriteReq accesses
system.cpu.dcache.WriteReq_miss_rate::total     0.086965                       # miss rate for WriteReq accesses
system.cpu.dcache.WriteReq_avg_miss_latency::.switch_cpus.data 51666.981120                       # average WriteReq miss latency
system.cpu.dcache.WriteReq_avg_miss_latency::total 14234.374229                       # average WriteReq miss latency
system.cpu.dcache.WriteReq_mshr_misses::.switch_cpus.data      2947988                       # number of WriteReq MSHR misses
system.cpu.dcache.WriteReq_mshr_misses::total      2947988                       # number of WriteReq MSHR misses
system.cpu.dcache.WriteReq_mshr_miss_latency::.switch_cpus.data 149365652339                       # number of WriteReq MSHR miss cycles
system.cpu.dcache.WriteReq_mshr_miss_latency::total 149365652339                       # number of WriteReq MSHR miss cycles
system.cpu.dcache.WriteReq_mshr_miss_rate::.switch_cpus.data     0.073790                       # mshr miss rate for WriteReq accesses
system.cpu.dcache.WriteReq_mshr_miss_rate::total     0.023959                       # mshr miss rate for WriteReq accesses
system.cpu.dcache.WriteReq_avg_mshr_miss_latency::.switch_cpus.data 50666.981120                       # average WriteReq mshr miss latency
system.cpu.dcache.WriteReq_avg_mshr_miss_latency::total 50666.981120                       # average WriteReq mshr miss latency
system.cpu.dcache.SoftPFReq_hits::.cpu.data         4709                       # number of SoftPFReq hits
system.cpu.dcache.SoftPFReq_hits::total          4709                       # number of SoftPFReq hits
system.cpu.dcache.SoftPFReq_misses::.cpu.data          653                       # number of SoftPFReq misses
system.cpu.dcache.SoftPFReq_misses::total          653                       # number of SoftPFReq misses
system.cpu.dcache.SoftPFReq_accesses::.cpu.data         5362                       # number of SoftPFReq accesses(hits+misses)
system.cpu.dcache.SoftPFReq_accesses::total         5362                       # number of SoftPFReq accesses(hits+misses)
system.cpu.dcache.SoftPFReq_miss_rate::.cpu.data     0.121783                       # miss rate for SoftPFReq accesses
system.cpu.dcache.SoftPFReq_miss_rate::total     0.121783                       # miss rate for SoftPFReq accesses
system.cpu.dcache.tags.pwrStateResidencyTicks::UNDEFINED 1589656100500                       # Cumulative time (in ticks) in various power states
system.cpu.dcache.tags.tagsinuse           255.998204                       # Cycle average of tags in use
system.cpu.dcache.tags.total_refs           522544510                       # Total number of references to valid blocks.
system.cpu.dcache.tags.sampled_refs          13803256                       # Sample count of references to valid blocks.
system.cpu.dcache.tags.avg_refs             37.856612                       # Average number of references to valid blocks.
system.cpu.dcache.tags.warmup_cycle              1000                       # Cycle when the warmup percentage was hit.
system.cpu.dcache.tags.occ_blocks::.cpu.data   172.528464                       # Average occupied blocks per requestor
system.cpu.dcache.tags.occ_blocks::.switch_cpus.data    83.469740                       # Average occupied blocks per requestor
system.cpu.dcache.tags.occ_percent::.cpu.data     0.673939                       # Average percentage of cache occupancy
system.cpu.dcache.tags.occ_percent::.switch_cpus.data     0.326054                       # Average percentage of cache occupancy
system.cpu.dcache.tags.occ_percent::total     0.999993                       # Average percentage of cache occupancy
system.cpu.dcache.tags.occ_task_id_blocks::1024          256                       # Occupied blocks per task id
system.cpu.dcache.tags.age_task_id_blocks_1024::0            2                       # Occupied blocks per task id
system.cpu.dcache.tags.age_task_id_blocks_1024::1            6                       # Occupied blocks per task id
system.cpu.dcache.tags.age_task_id_blocks_1024::2           64                       # Occupied blocks per task id
system.cpu.dcache.tags.age_task_id_blocks_1024::3          184                       # Occupied blocks per task id
system.cpu.dcache.tags.occ_task_id_percent::1024            1                       # Percentage of cache occupancy per task id
system.cpu.dcache.tags.tag_accesses        1059607460                       # Number of tag accesses
system.cpu.dcache.tags.data_accesses       1059607460                       # Number of data accesses

---------- End Simulation Statistics   ----------
