
---------- Begin Simulation Statistics ----------
final_tick                               1234273924500                       # Number of ticks from beginning of simulation (restored from checkpoints and never reset)
host_inst_rate                                 485370                       # Simulator instruction rate (inst/s)
host_mem_usage                                4510752                       # Number of bytes of host memory used
host_op_rate                                   753555                       # Simulator op (including micro ops) rate (op/s)
host_seconds                                  3090.43                       # Real time elapsed on the host
host_tick_rate                               53297814                       # Simulator tick rate (ticks/s)
sim_freq                                 1000000000000                       # Frequency of simulated ticks
sim_insts                                  1500000001                       # Number of instructions simulated
sim_ops                                    2328807785                       # Number of ops (including micro ops) simulated
sim_seconds                                  0.164713                       # Number of seconds simulated
sim_ticks                                164713055500                       # Number of ticks simulated
system.cpu.committedInsts                           0                       # Number of instructions committed
system.cpu.committedOps                             0                       # Number of ops (including micro ops) committed
system.cpu.dtb.rdAccesses                           0                       # TLB accesses on read requests
system.cpu.dtb.rdMisses                             0                       # TLB misses on read requests
system.cpu.dtb.wrAccesses                           0                       # TLB accesses on write requests
system.cpu.dtb.wrMisses                             0                       # TLB misses on write requests
system.cpu.idle_fraction                            0                       # Percentage of idle cycles
system.cpu.itb.rdAccesses                           0                       # TLB accesses on read requests
system.cpu.itb.rdMisses                             0                       # TLB misses on read requests
system.cpu.itb.wrAccesses                           0                       # TLB accesses on write requests
system.cpu.itb.wrMisses                             0                       # TLB misses on write requests
system.cpu.not_idle_fraction                        1                       # Percentage of non-idle cycles
system.cpu.numCycles                                0                       # number of cpu cycles simulated
system.cpu.numWorkItemsCompleted                    0                       # number of work items this cpu completed
system.cpu.numWorkItemsStarted                      0                       # number of work items this cpu started
system.cpu.num_busy_cycles                          0                       # Number of busy cycles
system.cpu.num_conditional_control_insts            0                       # number of instructions that are conditional controls
system.cpu.num_fp_alu_accesses                      0                       # Number of float alu accesses
system.cpu.num_fp_insts                             0                       # number of float instructions
system.cpu.num_fp_register_reads                    0                       # number of times the floating registers were read
system.cpu.num_fp_register_writes                   0                       # number of times the floating registers were written
system.cpu.num_func_calls                           0                       # number of times a function call or return occured
system.cpu.num_idle_cycles                          0                       # Number of idle cycles
system.cpu.num_int_alu_accesses                     0                       # Number of integer alu accesses
system.cpu.num_int_insts                            0                       # number of integer instructions
system.cpu.num_int_register_reads                   0                       # number of times the integer registers were read
system.cpu.num_int_register_writes                  0                       # number of times the integer registers were written
system.cpu.num_load_insts                           0                       # Number of load instructions
system.cpu.num_mem_refs                             0                       # number of memory refs
system.cpu.num_store_insts                          0                       # Number of store instructions
system.cpu.num_vec_alu_accesses                     0                       # Number of vector alu accesses
system.cpu.num_vec_insts                            0                       # number of vector instructions
system.cpu.num_vec_register_reads                   0                       # number of times the vector registers were read
system.cpu.num_vec_register_writes                  0                       # number of times the vector registers were written
system.cpu.op_class::No_OpClass                     0                       # Class of executed instruction
system.cpu.op_class::IntAlu                         0                       # Class of executed instruction
system.cpu.op_class::IntMult                        0                       # Class of executed instruction
system.cpu.op_class::IntDiv                         0                       # Class of executed instruction
system.cpu.op_class::FloatAdd                       0                       # Class of executed instruction
system.cpu.op_class::FloatCmp                       0                       # Class of executed instruction
system.cpu.op_class::FloatCvt                       0                       # Class of executed instruction
system.cpu.op_class::FloatMult                      0                       # Class of executed instruction
system.cpu.op_class::FloatMultAcc                   0                       # Class of executed instruction
system.cpu.op_class::FloatDiv                       0                       # Class of executed instruction
system.cpu.op_class::FloatMisc                      0                       # Class of executed instruction
system.cpu.op_class::FloatSqrt                      0                       # Class of executed instruction
system.cpu.op_class::SimdAdd                        0                       # Class of executed instruction
system.cpu.op_class::SimdAddAcc                     0                       # Class of executed instruction
system.cpu.op_class::SimdAlu                        0                       # Class of executed instruction
system.cpu.op_class::SimdCmp                        0                       # Class of executed instruction
system.cpu.op_class::SimdCvt                        0                       # Class of executed instruction
system.cpu.op_class::SimdMisc                       0                       # Class of executed instruction
system.cpu.op_class::SimdMult                       0                       # Class of executed instruction
system.cpu.op_class::SimdMultAcc                    0                       # Class of executed instruction
system.cpu.op_class::SimdShift                      0                       # Class of executed instruction
system.cpu.op_class::SimdShiftAcc                   0                       # Class of executed instruction
system.cpu.op_class::SimdDiv                        0                       # Class of executed instruction
system.cpu.op_class::SimdSqrt                       0                       # Class of executed instruction
system.cpu.op_class::SimdFloatAdd                   0                       # Class of executed instruction
system.cpu.op_class::SimdFloatAlu                   0                       # Class of executed instruction
system.cpu.op_class::SimdFloatCmp                   0                       # Class of executed instruction
system.cpu.op_class::SimdFloatCvt                   0                       # Class of executed instruction
system.cpu.op_class::SimdFloatDiv                   0                       # Class of executed instruction
system.cpu.op_class::SimdFloatMisc                  0                       # Class of executed instruction
system.cpu.op_class::SimdFloatMult                  0                       # Class of executed instruction
system.cpu.op_class::SimdFloatMultAcc               0                       # Class of executed instruction
system.cpu.op_class::SimdFloatSqrt                  0                       # Class of executed instruction
system.cpu.op_class::SimdReduceAdd                  0                       # Class of executed instruction
system.cpu.op_class::SimdReduceAlu                  0                       # Class of executed instruction
system.cpu.op_class::SimdReduceCmp                  0                       # Class of executed instruction
system.cpu.op_class::SimdFloatReduceAdd             0                       # Class of executed instruction
system.cpu.op_class::SimdFloatReduceCmp             0                       # Class of executed instruction
system.cpu.op_class::SimdAes                        0                       # Class of executed instruction
system.cpu.op_class::SimdAesMix                     0                       # Class of executed instruction
system.cpu.op_class::SimdSha1Hash                   0                       # Class of executed instruction
system.cpu.op_class::SimdSha1Hash2                  0                       # Class of executed instruction
system.cpu.op_class::SimdSha256Hash                 0                       # Class of executed instruction
system.cpu.op_class::SimdSha256Hash2                0                       # Class of executed instruction
system.cpu.op_class::SimdShaSigma2                  0                       # Class of executed instruction
system.cpu.op_class::SimdShaSigma3                  0                       # Class of executed instruction
system.cpu.op_class::SimdPredAlu                    0                       # Class of executed instruction
system.cpu.op_class::MemRead                        0                       # Class of executed instruction
system.cpu.op_class::MemWrite                       0                       # Class of executed instruction
system.cpu.op_class::FloatMemRead                   0                       # Class of executed instruction
system.cpu.op_class::FloatMemWrite                  0                       # Class of executed instruction
system.cpu.op_class::IprAccess                      0                       # Class of executed instruction
system.cpu.op_class::InstPrefetch                   0                       # Class of executed instruction
system.cpu.op_class::total                          0                       # Class of executed instruction
system.cpu.workload.numSyscalls                     0                       # Number of system calls
system.membus.snoop_filter.hit_multi_requests            0                       # Number of requests hitting in the snoop filter with multiple (>1) holders of the requested data.
system.membus.snoop_filter.hit_multi_snoops            0                       # Number of snoops hitting in the snoop filter with multiple (>1) holders of the requested data.
system.membus.snoop_filter.hit_single_requests       422423                       # Number of requests hitting in the snoop filter with a single holder of the requested data.
system.membus.snoop_filter.hit_single_snoops            0                       # Number of snoops hitting in the snoop filter with a single holder of the requested data.
system.membus.snoop_filter.tot_requests        844779                       # Total number of requests made to the snoop filter.
system.membus.snoop_filter.tot_snoops               0                       # Total number of snoops made to the snoop filter.
system.switch_cpus.branchPred.BTBCorrect            0                       # Number of correct BTB predictions (this stat may not work properly.
system.switch_cpus.branchPred.BTBHitPct      0.000000                       # BTB Hit Percentage
system.switch_cpus.branchPred.BTBHits               0                       # Number of BTB hits
system.switch_cpus.branchPred.BTBLookups      8719570                       # Number of BTB lookups
system.switch_cpus.branchPred.RASInCorrect            8                       # Number of incorrect RAS predictions.
system.switch_cpus.branchPred.condIncorrect       406248                       # Number of conditional branches incorrect
system.switch_cpus.branchPred.condPredicted      9146773                       # Number of conditional branches predicted
system.switch_cpus.branchPred.indirectHits      2325412                       # Number of indirect target hits.
system.switch_cpus.branchPred.indirectLookups      8719570                       # Number of indirect predictor lookups.
system.switch_cpus.branchPred.indirectMisses      6394158                       # Number of indirect misses.
system.switch_cpus.branchPred.lookups         9602937                       # Number of BP lookups
system.switch_cpus.branchPred.usedRAS          214644                       # Number of times the RAS was used to get a target.
system.switch_cpus.branchPredindirectMispredicted       324083                       # Number of mispredicted indirect branches.
system.switch_cpus.cc_regfile_reads          52763890                       # number of cc regfile reads
system.switch_cpus.cc_regfile_writes         35659328                       # number of cc regfile writes
system.switch_cpus.commit.amos                      0                       # Number of atomic instructions committed
system.switch_cpus.commit.branchMispredicts       454567                       # The number of times a branch was mispredicted
system.switch_cpus.commit.branches            8833774                       # Number of branches committed
system.switch_cpus.commit.bw_lim_events      46484033                       # number cycles where commit BW limit reached
system.switch_cpus.commit.commitSquashedInsts     15062660                       # The number of squashed insts skipped by commit
system.switch_cpus.commit.committedInsts    500000001                       # Number of instructions committed
system.switch_cpus.commit.committedOps      767694187                       # Number of ops (including micro ops) committed
system.switch_cpus.commit.committed_per_cycle::samples    326919853                       # Number of insts commited each cycle
system.switch_cpus.commit.committed_per_cycle::mean     2.348264                       # Number of insts commited each cycle
system.switch_cpus.commit.committed_per_cycle::stdev     2.973857                       # Number of insts commited each cycle
system.switch_cpus.commit.committed_per_cycle::underflows            0      0.00%      0.00% # Number of insts commited each cycle
system.switch_cpus.commit.committed_per_cycle::0    156290091     47.81%     47.81% # Number of insts commited each cycle
system.switch_cpus.commit.committed_per_cycle::1     38263668     11.70%     59.51% # Number of insts commited each cycle
system.switch_cpus.commit.committed_per_cycle::2     13095917      4.01%     63.52% # Number of insts commited each cycle
system.switch_cpus.commit.committed_per_cycle::3     17408679      5.33%     68.84% # Number of insts commited each cycle
system.switch_cpus.commit.committed_per_cycle::4     23550112      7.20%     76.05% # Number of insts commited each cycle
system.switch_cpus.commit.committed_per_cycle::5     13697237      4.19%     80.24% # Number of insts commited each cycle
system.switch_cpus.commit.committed_per_cycle::6     10457065      3.20%     83.43% # Number of insts commited each cycle
system.switch_cpus.commit.committed_per_cycle::7      7673051      2.35%     85.78% # Number of insts commited each cycle
system.switch_cpus.commit.committed_per_cycle::8     46484033     14.22%    100.00% # Number of insts commited each cycle
system.switch_cpus.commit.committed_per_cycle::overflows            0      0.00%    100.00% # Number of insts commited each cycle
system.switch_cpus.commit.committed_per_cycle::min_value            0                       # Number of insts commited each cycle
system.switch_cpus.commit.committed_per_cycle::max_value            8                       # Number of insts commited each cycle
system.switch_cpus.commit.committed_per_cycle::total    326919853                       # Number of insts commited each cycle
system.switch_cpus.commit.fp_insts          698559296                       # Number of committed floating point instructions.
system.switch_cpus.commit.function_calls       198704                       # Number of function calls committed.
system.switch_cpus.commit.int_insts         237825453                       # Number of committed integer instructions.
system.switch_cpus.commit.loads             134565501                       # Number of loads committed
system.switch_cpus.commit.membars                   0                       # Number of memory barriers committed
system.switch_cpus.commit.op_class_0::No_OpClass           21      0.00%      0.00% # Class of committed instruction
system.switch_cpus.commit.op_class_0::IntAlu    235954012     30.74%     30.74% # Class of committed instruction
system.switch_cpus.commit.op_class_0::IntMult            0      0.00%     30.74% # Class of committed instruction
system.switch_cpus.commit.op_class_0::IntDiv            0      0.00%     30.74% # Class of committed instruction
system.switch_cpus.commit.op_class_0::FloatAdd     84772741     11.04%     41.78% # Class of committed instruction
system.switch_cpus.commit.op_class_0::FloatCmp            0      0.00%     41.78% # Class of committed instruction
system.switch_cpus.commit.op_class_0::FloatCvt            0      0.00%     41.78% # Class of committed instruction
system.switch_cpus.commit.op_class_0::FloatMult            0      0.00%     41.78% # Class of committed instruction
system.switch_cpus.commit.op_class_0::FloatMultAcc            0      0.00%     41.78% # Class of committed instruction
system.switch_cpus.commit.op_class_0::FloatDiv            0      0.00%     41.78% # Class of committed instruction
system.switch_cpus.commit.op_class_0::FloatMisc            0      0.00%     41.78% # Class of committed instruction
system.switch_cpus.commit.op_class_0::FloatSqrt            0      0.00%     41.78% # Class of committed instruction
system.switch_cpus.commit.op_class_0::SimdAdd            0      0.00%     41.78% # Class of committed instruction
system.switch_cpus.commit.op_class_0::SimdAddAcc            0      0.00%     41.78% # Class of committed instruction
system.switch_cpus.commit.op_class_0::SimdAlu     24802932      3.23%     45.01% # Class of committed instruction
system.switch_cpus.commit.op_class_0::SimdCmp            0      0.00%     45.01% # Class of committed instruction
system.switch_cpus.commit.op_class_0::SimdCvt            0      0.00%     45.01% # Class of committed instruction
system.switch_cpus.commit.op_class_0::SimdMisc       754186      0.10%     45.11% # Class of committed instruction
system.switch_cpus.commit.op_class_0::SimdMult            0      0.00%     45.11% # Class of committed instruction
system.switch_cpus.commit.op_class_0::SimdMultAcc            0      0.00%     45.11% # Class of committed instruction
system.switch_cpus.commit.op_class_0::SimdShift            0      0.00%     45.11% # Class of committed instruction
system.switch_cpus.commit.op_class_0::SimdShiftAcc            0      0.00%     45.11% # Class of committed instruction
system.switch_cpus.commit.op_class_0::SimdDiv            0      0.00%     45.11% # Class of committed instruction
system.switch_cpus.commit.op_class_0::SimdSqrt            0      0.00%     45.11% # Class of committed instruction
system.switch_cpus.commit.op_class_0::SimdFloatAdd    117779714     15.34%     60.45% # Class of committed instruction
system.switch_cpus.commit.op_class_0::SimdFloatAlu            0      0.00%     60.45% # Class of committed instruction
system.switch_cpus.commit.op_class_0::SimdFloatCmp            0      0.00%     60.45% # Class of committed instruction
system.switch_cpus.commit.op_class_0::SimdFloatCvt      5624045      0.73%     61.18% # Class of committed instruction
system.switch_cpus.commit.op_class_0::SimdFloatDiv      2786974      0.36%     61.54% # Class of committed instruction
system.switch_cpus.commit.op_class_0::SimdFloatMisc            0      0.00%     61.54% # Class of committed instruction
system.switch_cpus.commit.op_class_0::SimdFloatMult    120554459     15.70%     77.25% # Class of committed instruction
system.switch_cpus.commit.op_class_0::SimdFloatMultAcc            0      0.00%     77.25% # Class of committed instruction
system.switch_cpus.commit.op_class_0::SimdFloatSqrt       148336      0.02%     77.27% # Class of committed instruction
system.switch_cpus.commit.op_class_0::SimdReduceAdd            0      0.00%     77.27% # Class of committed instruction
system.switch_cpus.commit.op_class_0::SimdReduceAlu            0      0.00%     77.27% # Class of committed instruction
system.switch_cpus.commit.op_class_0::SimdReduceCmp            0      0.00%     77.27% # Class of committed instruction
system.switch_cpus.commit.op_class_0::SimdFloatReduceAdd            0      0.00%     77.27% # Class of committed instruction
system.switch_cpus.commit.op_class_0::SimdFloatReduceCmp            0      0.00%     77.27% # Class of committed instruction
system.switch_cpus.commit.op_class_0::SimdAes            0      0.00%     77.27% # Class of committed instruction
system.switch_cpus.commit.op_class_0::SimdAesMix            0      0.00%     77.27% # Class of committed instruction
system.switch_cpus.commit.op_class_0::SimdSha1Hash            0      0.00%     77.27% # Class of committed instruction
system.switch_cpus.commit.op_class_0::SimdSha1Hash2            0      0.00%     77.27% # Class of committed instruction
system.switch_cpus.commit.op_class_0::SimdSha256Hash            0      0.00%     77.27% # Class of committed instruction
system.switch_cpus.commit.op_class_0::SimdSha256Hash2            0      0.00%     77.27% # Class of committed instruction
system.switch_cpus.commit.op_class_0::SimdShaSigma2            0      0.00%     77.27% # Class of committed instruction
system.switch_cpus.commit.op_class_0::SimdShaSigma3            0      0.00%     77.27% # Class of committed instruction
system.switch_cpus.commit.op_class_0::SimdPredAlu            0      0.00%     77.27% # Class of committed instruction
system.switch_cpus.commit.op_class_0::MemRead      4983029      0.65%     77.92% # Class of committed instruction
system.switch_cpus.commit.op_class_0::MemWrite      1595594      0.21%     78.12% # Class of committed instruction
system.switch_cpus.commit.op_class_0::FloatMemRead    129582472     16.88%     95.00% # Class of committed instruction
system.switch_cpus.commit.op_class_0::FloatMemWrite     38355671      5.00%    100.00% # Class of committed instruction
system.switch_cpus.commit.op_class_0::IprAccess            0      0.00%    100.00% # Class of committed instruction
system.switch_cpus.commit.op_class_0::InstPrefetch            0      0.00%    100.00% # Class of committed instruction
system.switch_cpus.commit.op_class_0::total    767694186                       # Class of committed instruction
system.switch_cpus.commit.refs              174516766                       # Number of memory references committed
system.switch_cpus.commit.swp_count                 0                       # Number of s/w prefetches committed
system.switch_cpus.commit.vec_insts                 0                       # Number of committed Vector instructions.
system.switch_cpus.committedInsts           500000000                       # Number of Instructions Simulated
system.switch_cpus.committedOps             767694186                       # Number of Ops (including micro ops) Simulated
system.switch_cpus.cpi                       0.658852                       # CPI: Cycles Per Instruction
system.switch_cpus.cpi_total                 0.658852                       # CPI: Total CPI of All Threads
system.switch_cpus.decode.BlockedCycles     158312335                       # Number of cycles decode is blocked
system.switch_cpus.decode.DecodedInsts      788735342                       # Number of instructions handled by decode
system.switch_cpus.decode.IdleCycles         53650937                       # Number of cycles decode is idle
system.switch_cpus.decode.RunCycles         109379569                       # Number of cycles decode is running
system.switch_cpus.decode.SquashCycles         472896                       # Number of cycles decode is squashing
system.switch_cpus.decode.UnblockCycles       7258742                       # Number of cycles decode is unblocking
system.switch_cpus.dtb.rdAccesses           136148551                       # TLB accesses on read requests
system.switch_cpus.dtb.rdMisses                   926                       # TLB misses on read requests
system.switch_cpus.dtb.wrAccesses            40303838                       # TLB accesses on write requests
system.switch_cpus.dtb.wrMisses                  5740                       # TLB misses on write requests
system.switch_cpus.fetch.Branches             9602937                       # Number of branches that fetch encountered
system.switch_cpus.fetch.CacheLines          49201373                       # Number of cache lines fetched
system.switch_cpus.fetch.Cycles             275451864                       # Number of cycles fetch has run and was not squashing or blocked
system.switch_cpus.fetch.IcacheSquashes        101819                       # Number of outstanding Icache misses that were squashed
system.switch_cpus.fetch.IcacheWaitRetryStallCycles       414822                       # Number of stall cycles due to full MSHR
system.switch_cpus.fetch.Insts              514299337                       # Number of instructions fetch has processed
system.switch_cpus.fetch.MiscStallCycles        90032                       # Number of cycles fetch has spent waiting on interrupts, or bad addresses, or out of MSHRs
system.switch_cpus.fetch.PendingTrapStallCycles       617557                       # Number of stall cycles due to pending traps
system.switch_cpus.fetch.SquashCycles          945792                       # Number of cycles fetch has spent squashing
system.switch_cpus.fetch.TlbCycles               3145                       # Number of cycles fetch has spent waiting for tlb
system.switch_cpus.fetch.branchRate          0.029151                       # Number of branch fetches per cycle
system.switch_cpus.fetch.icacheStallCycles     52024229                       # Number of cycles fetch is stalled on an Icache miss
system.switch_cpus.fetch.predictedBranches      2540056                       # Number of branches that fetch has predicted taken
system.switch_cpus.fetch.rate                1.561198                       # Number of inst fetches per cycle
system.switch_cpus.fetch.rateDist::samples    329074545                       # Number of instructions fetched each cycle (Total)
system.switch_cpus.fetch.rateDist::mean      2.406917                       # Number of instructions fetched each cycle (Total)
system.switch_cpus.fetch.rateDist::stdev     3.460752                       # Number of instructions fetched each cycle (Total)
system.switch_cpus.fetch.rateDist::underflows            0      0.00%      0.00% # Number of instructions fetched each cycle (Total)
system.switch_cpus.fetch.rateDist::0        208405209     63.33%     63.33% # Number of instructions fetched each cycle (Total)
system.switch_cpus.fetch.rateDist::1          7753358      2.36%     65.69% # Number of instructions fetched each cycle (Total)
system.switch_cpus.fetch.rateDist::2          6890522      2.09%     67.78% # Number of instructions fetched each cycle (Total)
system.switch_cpus.fetch.rateDist::3          5108917      1.55%     69.33% # Number of instructions fetched each cycle (Total)
system.switch_cpus.fetch.rateDist::4          3588814      1.09%     70.42% # Number of instructions fetched each cycle (Total)
system.switch_cpus.fetch.rateDist::5          5823474      1.77%     72.19% # Number of instructions fetched each cycle (Total)
system.switch_cpus.fetch.rateDist::6          5892967      1.79%     73.98% # Number of instructions fetched each cycle (Total)
system.switch_cpus.fetch.rateDist::7          8526663      2.59%     76.58% # Number of instructions fetched each cycle (Total)
system.switch_cpus.fetch.rateDist::8         77084621     23.42%    100.00% # Number of instructions fetched each cycle (Total)
system.switch_cpus.fetch.rateDist::overflows            0      0.00%    100.00% # Number of instructions fetched each cycle (Total)
system.switch_cpus.fetch.rateDist::min_value            0                       # Number of instructions fetched each cycle (Total)
system.switch_cpus.fetch.rateDist::max_value            8                       # Number of instructions fetched each cycle (Total)
system.switch_cpus.fetch.rateDist::total    329074545                       # Number of instructions fetched each cycle (Total)
system.switch_cpus.fp_regfile_reads        1179149521                       # number of floating regfile reads
system.switch_cpus.fp_regfile_writes        659155813                       # number of floating regfile writes
system.switch_cpus.idleCycles                  351566                       # Total number of cycles that the CPU has spent unscheduled due to idling
system.switch_cpus.iew.branchMispredicts       535591                       # Number of branch mispredicts detected at execute
system.switch_cpus.iew.exec_branches          9078003                       # Number of branches executed
system.switch_cpus.iew.exec_nop                     0                       # number of nop insts executed
system.switch_cpus.iew.exec_rate             2.582315                       # Inst execution rate
system.switch_cpus.iew.exec_refs            250391704                       # number of memory reference insts executed
system.switch_cpus.iew.exec_stores           40303838                       # Number of stores executed
system.switch_cpus.iew.exec_swp                     0                       # number of swp insts executed
system.switch_cpus.iew.iewBlockCycles       128208295                       # Number of cycles IEW is blocking
system.switch_cpus.iew.iewDispLoadInsts     136632992                       # Number of dispatched load instructions
system.switch_cpus.iew.iewDispNonSpecInsts        30379                       # Number of dispatched non-speculative instructions
system.switch_cpus.iew.iewDispSquashedInsts        17643                       # Number of squashed instructions skipped by dispatch
system.switch_cpus.iew.iewDispStoreInsts     40589334                       # Number of dispatched store instructions
system.switch_cpus.iew.iewDispatchedInsts    782756762                       # Number of instructions dispatched to IQ
system.switch_cpus.iew.iewExecLoadInsts     210087866                       # Number of load instructions executed
system.switch_cpus.iew.iewExecSquashedInsts      1178167                       # Number of squashed instructions skipped in execute
system.switch_cpus.iew.iewExecutedInsts     850681980                       # Number of executed instructions
system.switch_cpus.iew.iewIQFullEvents        1026588                       # Number of times the IQ has become full, causing a stall
system.switch_cpus.iew.iewIdleCycles                0                       # Number of cycles IEW is idle
system.switch_cpus.iew.iewLSQFullEvents             0                       # Number of times the LSQ has become full, causing a stall
system.switch_cpus.iew.iewSquashCycles         472896                       # Number of cycles IEW is squashing
system.switch_cpus.iew.iewUnblockCycles       2787866                       # Number of cycles IEW is unblocking
system.switch_cpus.iew.lsq.thread0.blockedLoads            0                       # Number of blocked loads due to partial load-store forwarding
system.switch_cpus.iew.lsq.thread0.cacheBlocked      3435534                       # Number of times an access to memory failed due to the cache being blocked
system.switch_cpus.iew.lsq.thread0.forwLoads     14198721                       # Number of loads that had data forwarded from stores
system.switch_cpus.iew.lsq.thread0.ignoredResponses        12962                       # Number of memory responses ignored because the instruction is squashed
system.switch_cpus.iew.lsq.thread0.invAddrLoads            0                       # Number of loads ignored due to an invalid address
system.switch_cpus.iew.lsq.thread0.invAddrSwpfs            0                       # Number of software prefetches ignored due to an invalid address
system.switch_cpus.iew.lsq.thread0.memOrderViolation        21482                       # Number of memory ordering violations
system.switch_cpus.iew.lsq.thread0.rescheduledLoads            0                       # Number of loads that were rescheduled
system.switch_cpus.iew.lsq.thread0.squashedLoads      2067487                       # Number of loads squashed
system.switch_cpus.iew.lsq.thread0.squashedStores       638069                       # Number of stores squashed
system.switch_cpus.iew.memOrderViolationEvents        21482                       # Number of memory order violations
system.switch_cpus.iew.predictedNotTakenIncorrect       471673                       # Number of branches that were predicted not taken incorrectly
system.switch_cpus.iew.predictedTakenIncorrect        63918                       # Number of branches that were predicted taken incorrectly
system.switch_cpus.iew.wb_consumers         932415611                       # num instructions consuming a value
system.switch_cpus.iew.wb_count             776022692                       # cumulative count of insts written-back
system.switch_cpus.iew.wb_fanout             0.596420                       # average fanout of values written-back
system.switch_cpus.iew.wb_producers         556111221                       # num instructions producing a value
system.switch_cpus.iew.wb_rate               2.355681                       # insts written-back per cycle
system.switch_cpus.iew.wb_sent              776296283                       # cumulative count of insts sent to commit
system.switch_cpus.int_regfile_reads        558787994                       # number of integer regfile reads
system.switch_cpus.int_regfile_writes        61889394                       # number of integer regfile writes
system.switch_cpus.ipc                       1.517791                       # IPC: Instructions Per Cycle
system.switch_cpus.ipc_total                 1.517791                       # IPC: Total IPC of All Threads
system.switch_cpus.iq.FU_type_0::No_OpClass       170459      0.02%      0.02% # Type of FU issued
system.switch_cpus.iq.FU_type_0::IntAlu     240984907     28.29%     28.31% # Type of FU issued
system.switch_cpus.iq.FU_type_0::IntMult            0      0.00%     28.31% # Type of FU issued
system.switch_cpus.iq.FU_type_0::IntDiv             0      0.00%     28.31% # Type of FU issued
system.switch_cpus.iq.FU_type_0::FloatAdd     85743230     10.07%     38.37% # Type of FU issued
system.switch_cpus.iq.FU_type_0::FloatCmp            0      0.00%     38.37% # Type of FU issued
system.switch_cpus.iq.FU_type_0::FloatCvt            0      0.00%     38.37% # Type of FU issued
system.switch_cpus.iq.FU_type_0::FloatMult            0      0.00%     38.37% # Type of FU issued
system.switch_cpus.iq.FU_type_0::FloatMultAcc            0      0.00%     38.37% # Type of FU issued
system.switch_cpus.iq.FU_type_0::FloatDiv            0      0.00%     38.37% # Type of FU issued
system.switch_cpus.iq.FU_type_0::FloatMisc            0      0.00%     38.37% # Type of FU issued
system.switch_cpus.iq.FU_type_0::FloatSqrt            0      0.00%     38.37% # Type of FU issued
system.switch_cpus.iq.FU_type_0::SimdAdd            0      0.00%     38.37% # Type of FU issued
system.switch_cpus.iq.FU_type_0::SimdAddAcc            0      0.00%     38.37% # Type of FU issued
system.switch_cpus.iq.FU_type_0::SimdAlu     25259962      2.97%     41.34% # Type of FU issued
system.switch_cpus.iq.FU_type_0::SimdCmp            0      0.00%     41.34% # Type of FU issued
system.switch_cpus.iq.FU_type_0::SimdCvt            0      0.00%     41.34% # Type of FU issued
system.switch_cpus.iq.FU_type_0::SimdMisc       766884      0.09%     41.43% # Type of FU issued
system.switch_cpus.iq.FU_type_0::SimdMult            0      0.00%     41.43% # Type of FU issued
system.switch_cpus.iq.FU_type_0::SimdMultAcc            0      0.00%     41.43% # Type of FU issued
system.switch_cpus.iq.FU_type_0::SimdShift            0      0.00%     41.43% # Type of FU issued
system.switch_cpus.iq.FU_type_0::SimdShiftAcc            0      0.00%     41.43% # Type of FU issued
system.switch_cpus.iq.FU_type_0::SimdDiv            0      0.00%     41.43% # Type of FU issued
system.switch_cpus.iq.FU_type_0::SimdSqrt            0      0.00%     41.43% # Type of FU issued
system.switch_cpus.iq.FU_type_0::SimdFloatAdd    118443139     13.90%     55.33% # Type of FU issued
system.switch_cpus.iq.FU_type_0::SimdFloatAlu            0      0.00%     55.33% # Type of FU issued
system.switch_cpus.iq.FU_type_0::SimdFloatCmp            0      0.00%     55.33% # Type of FU issued
system.switch_cpus.iq.FU_type_0::SimdFloatCvt      5695064      0.67%     56.00% # Type of FU issued
system.switch_cpus.iq.FU_type_0::SimdFloatDiv      2786974      0.33%     56.33% # Type of FU issued
system.switch_cpus.iq.FU_type_0::SimdFloatMisc            0      0.00%     56.33% # Type of FU issued
system.switch_cpus.iq.FU_type_0::SimdFloatMult    121105371     14.22%     70.55% # Type of FU issued
system.switch_cpus.iq.FU_type_0::SimdFloatMultAcc            0      0.00%     70.55% # Type of FU issued
system.switch_cpus.iq.FU_type_0::SimdFloatSqrt       148336      0.02%     70.56% # Type of FU issued
system.switch_cpus.iq.FU_type_0::SimdReduceAdd            0      0.00%     70.56% # Type of FU issued
system.switch_cpus.iq.FU_type_0::SimdReduceAlu            0      0.00%     70.56% # Type of FU issued
system.switch_cpus.iq.FU_type_0::SimdReduceCmp            0      0.00%     70.56% # Type of FU issued
system.switch_cpus.iq.FU_type_0::SimdFloatReduceAdd            0      0.00%     70.56% # Type of FU issued
system.switch_cpus.iq.FU_type_0::SimdFloatReduceCmp            0      0.00%     70.56% # Type of FU issued
system.switch_cpus.iq.FU_type_0::SimdAes            0      0.00%     70.56% # Type of FU issued
system.switch_cpus.iq.FU_type_0::SimdAesMix            0      0.00%     70.56% # Type of FU issued
system.switch_cpus.iq.FU_type_0::SimdSha1Hash            0      0.00%     70.56% # Type of FU issued
system.switch_cpus.iq.FU_type_0::SimdSha1Hash2            0      0.00%     70.56% # Type of FU issued
system.switch_cpus.iq.FU_type_0::SimdSha256Hash            0      0.00%     70.56% # Type of FU issued
system.switch_cpus.iq.FU_type_0::SimdSha256Hash2            0      0.00%     70.56% # Type of FU issued
system.switch_cpus.iq.FU_type_0::SimdShaSigma2            0      0.00%     70.56% # Type of FU issued
system.switch_cpus.iq.FU_type_0::SimdShaSigma3            0      0.00%     70.56% # Type of FU issued
system.switch_cpus.iq.FU_type_0::SimdPredAlu            0      0.00%     70.56% # Type of FU issued
system.switch_cpus.iq.FU_type_0::MemRead     16522274      1.94%     72.50% # Type of FU issued
system.switch_cpus.iq.FU_type_0::MemWrite      1699489      0.20%     72.70% # Type of FU issued
system.switch_cpus.iq.FU_type_0::FloatMemRead    193877907     22.76%     95.46% # Type of FU issued
system.switch_cpus.iq.FU_type_0::FloatMemWrite     38656153      4.54%    100.00% # Type of FU issued
system.switch_cpus.iq.FU_type_0::IprAccess            0      0.00%    100.00% # Type of FU issued
system.switch_cpus.iq.FU_type_0::InstPrefetch            0      0.00%    100.00% # Type of FU issued
system.switch_cpus.iq.FU_type_0::total      851860149                       # Type of FU issued
system.switch_cpus.iq.fp_alu_accesses       785504140                       # Number of floating point alu accesses
system.switch_cpus.iq.fp_inst_queue_reads   1553614530                       # Number of floating instruction queue reads
system.switch_cpus.iq.fp_inst_queue_wakeup_accesses    704032980                       # Number of floating instruction queue wakeup accesses
system.switch_cpus.iq.fp_inst_queue_writes    720438929                       # Number of floating instruction queue writes
system.switch_cpus.iq.fu_busy_cnt            26075502                       # FU busy when requested
system.switch_cpus.iq.fu_busy_rate           0.030610                       # FU busy rate (busy events/executed inst)
system.switch_cpus.iq.fu_full::No_OpClass            0      0.00%      0.00% # attempts to use FU when none available
system.switch_cpus.iq.fu_full::IntAlu          249481      0.96%      0.96% # attempts to use FU when none available
system.switch_cpus.iq.fu_full::IntMult              0      0.00%      0.96% # attempts to use FU when none available
system.switch_cpus.iq.fu_full::IntDiv               0      0.00%      0.96% # attempts to use FU when none available
system.switch_cpus.iq.fu_full::FloatAdd             0      0.00%      0.96% # attempts to use FU when none available
system.switch_cpus.iq.fu_full::FloatCmp             0      0.00%      0.96% # attempts to use FU when none available
system.switch_cpus.iq.fu_full::FloatCvt             0      0.00%      0.96% # attempts to use FU when none available
system.switch_cpus.iq.fu_full::FloatMult            0      0.00%      0.96% # attempts to use FU when none available
system.switch_cpus.iq.fu_full::FloatMultAcc            0      0.00%      0.96% # attempts to use FU when none available
system.switch_cpus.iq.fu_full::FloatDiv             0      0.00%      0.96% # attempts to use FU when none available
system.switch_cpus.iq.fu_full::FloatMisc            0      0.00%      0.96% # attempts to use FU when none available
system.switch_cpus.iq.fu_full::FloatSqrt            0      0.00%      0.96% # attempts to use FU when none available
system.switch_cpus.iq.fu_full::SimdAdd              0      0.00%      0.96% # attempts to use FU when none available
system.switch_cpus.iq.fu_full::SimdAddAcc            0      0.00%      0.96% # attempts to use FU when none available
system.switch_cpus.iq.fu_full::SimdAlu         366941      1.41%      2.36% # attempts to use FU when none available
system.switch_cpus.iq.fu_full::SimdCmp              0      0.00%      2.36% # attempts to use FU when none available
system.switch_cpus.iq.fu_full::SimdCvt              0      0.00%      2.36% # attempts to use FU when none available
system.switch_cpus.iq.fu_full::SimdMisc             1      0.00%      2.36% # attempts to use FU when none available
system.switch_cpus.iq.fu_full::SimdMult             0      0.00%      2.36% # attempts to use FU when none available
system.switch_cpus.iq.fu_full::SimdMultAcc            0      0.00%      2.36% # attempts to use FU when none available
system.switch_cpus.iq.fu_full::SimdShift            0      0.00%      2.36% # attempts to use FU when none available
system.switch_cpus.iq.fu_full::SimdShiftAcc            0      0.00%      2.36% # attempts to use FU when none available
system.switch_cpus.iq.fu_full::SimdDiv              0      0.00%      2.36% # attempts to use FU when none available
system.switch_cpus.iq.fu_full::SimdSqrt             0      0.00%      2.36% # attempts to use FU when none available
system.switch_cpus.iq.fu_full::SimdFloatAdd        32881      0.13%      2.49% # attempts to use FU when none available
system.switch_cpus.iq.fu_full::SimdFloatAlu            0      0.00%      2.49% # attempts to use FU when none available
system.switch_cpus.iq.fu_full::SimdFloatCmp            0      0.00%      2.49% # attempts to use FU when none available
system.switch_cpus.iq.fu_full::SimdFloatCvt        15725      0.06%      2.55% # attempts to use FU when none available
system.switch_cpus.iq.fu_full::SimdFloatDiv       132744      0.51%      3.06% # attempts to use FU when none available
system.switch_cpus.iq.fu_full::SimdFloatMisc            0      0.00%      3.06% # attempts to use FU when none available
system.switch_cpus.iq.fu_full::SimdFloatMult       520566      2.00%      5.06% # attempts to use FU when none available
system.switch_cpus.iq.fu_full::SimdFloatMultAcc            0      0.00%      5.06% # attempts to use FU when none available
system.switch_cpus.iq.fu_full::SimdFloatSqrt            0      0.00%      5.06% # attempts to use FU when none available
system.switch_cpus.iq.fu_full::SimdReduceAdd            0      0.00%      5.06% # attempts to use FU when none available
system.switch_cpus.iq.fu_full::SimdReduceAlu            0      0.00%      5.06% # attempts to use FU when none available
system.switch_cpus.iq.fu_full::SimdReduceCmp            0      0.00%      5.06% # attempts to use FU when none available
system.switch_cpus.iq.fu_full::SimdFloatReduceAdd            0      0.00%      5.06% # attempts to use FU when none available
system.switch_cpus.iq.fu_full::SimdFloatReduceCmp            0      0.00%      5.06% # attempts to use FU when none available
system.switch_cpus.iq.fu_full::SimdAes              0      0.00%      5.06% # attempts to use FU when none available
system.switch_cpus.iq.fu_full::SimdAesMix            0      0.00%      5.06% # attempts to use FU when none available
system.switch_cpus.iq.fu_full::SimdSha1Hash            0      0.00%      5.06% # attempts to use FU when none available
system.switch_cpus.iq.fu_full::SimdSha1Hash2            0      0.00%      5.06% # attempts to use FU when none available
system.switch_cpus.iq.fu_full::SimdSha256Hash            0      0.00%      5.06% # attempts to use FU when none available
system.switch_cpus.iq.fu_full::SimdSha256Hash2            0      0.00%      5.06% # attempts to use FU when none available
system.switch_cpus.iq.fu_full::SimdShaSigma2            0      0.00%      5.06% # attempts to use FU when none available
system.switch_cpus.iq.fu_full::SimdShaSigma3            0      0.00%      5.06% # attempts to use FU when none available
system.switch_cpus.iq.fu_full::SimdPredAlu            0      0.00%      5.06% # attempts to use FU when none available
system.switch_cpus.iq.fu_full::MemRead        8356144     32.05%     37.10% # attempts to use FU when none available
system.switch_cpus.iq.fu_full::MemWrite          4787      0.02%     37.12% # attempts to use FU when none available
system.switch_cpus.iq.fu_full::FloatMemRead     16331127     62.63%     99.75% # attempts to use FU when none available
system.switch_cpus.iq.fu_full::FloatMemWrite        65105      0.25%    100.00% # attempts to use FU when none available
system.switch_cpus.iq.fu_full::IprAccess            0      0.00%    100.00% # attempts to use FU when none available
system.switch_cpus.iq.fu_full::InstPrefetch            0      0.00%    100.00% # attempts to use FU when none available
system.switch_cpus.iq.int_alu_accesses       92261052                       # Number of integer alu accesses
system.switch_cpus.iq.int_inst_queue_reads    505478360                       # Number of integer instruction queue reads
system.switch_cpus.iq.int_inst_queue_wakeup_accesses     71989712                       # Number of integer instruction queue wakeup accesses
system.switch_cpus.iq.int_inst_queue_writes     77400477                       # Number of integer instruction queue writes
system.switch_cpus.iq.iqInstsAdded          782726383                       # Number of instructions added to the IQ (excludes non-spec)
system.switch_cpus.iq.iqInstsIssued         851860149                       # Number of instructions issued
system.switch_cpus.iq.iqNonSpecInstsAdded        30379                       # Number of non-speculative instructions added to the IQ
system.switch_cpus.iq.iqSquashedInstsExamined     15062492                       # Number of squashed instructions iterated over during squash; mainly for profiling
system.switch_cpus.iq.iqSquashedInstsIssued       222547                       # Number of squashed instructions issued
system.switch_cpus.iq.iqSquashedNonSpecRemoved        30379                       # Number of squashed non-spec instructions that were removed
system.switch_cpus.iq.iqSquashedOperandsExamined     17185064                       # Number of squashed operands that are examined and possibly removed from graph
system.switch_cpus.iq.issued_per_cycle::samples    329074545                       # Number of insts issued each cycle
system.switch_cpus.iq.issued_per_cycle::mean     2.588654                       # Number of insts issued each cycle
system.switch_cpus.iq.issued_per_cycle::stdev     2.606051                       # Number of insts issued each cycle
system.switch_cpus.iq.issued_per_cycle::underflows            0      0.00%      0.00% # Number of insts issued each cycle
system.switch_cpus.iq.issued_per_cycle::0    130435668     39.64%     39.64% # Number of insts issued each cycle
system.switch_cpus.iq.issued_per_cycle::1     17864422      5.43%     45.07% # Number of insts issued each cycle
system.switch_cpus.iq.issued_per_cycle::2     25316490      7.69%     52.76% # Number of insts issued each cycle
system.switch_cpus.iq.issued_per_cycle::3     27123441      8.24%     61.00% # Number of insts issued each cycle
system.switch_cpus.iq.issued_per_cycle::4     41641717     12.65%     73.66% # Number of insts issued each cycle
system.switch_cpus.iq.issued_per_cycle::5     30763754      9.35%     83.00% # Number of insts issued each cycle
system.switch_cpus.iq.issued_per_cycle::6     24702282      7.51%     90.51% # Number of insts issued each cycle
system.switch_cpus.iq.issued_per_cycle::7     16421074      4.99%     95.50% # Number of insts issued each cycle
system.switch_cpus.iq.issued_per_cycle::8     14805697      4.50%    100.00% # Number of insts issued each cycle
system.switch_cpus.iq.issued_per_cycle::overflows            0      0.00%    100.00% # Number of insts issued each cycle
system.switch_cpus.iq.issued_per_cycle::min_value            0                       # Number of insts issued each cycle
system.switch_cpus.iq.issued_per_cycle::max_value            8                       # Number of insts issued each cycle
system.switch_cpus.iq.issued_per_cycle::total    329074545                       # Number of insts issued each cycle
system.switch_cpus.iq.rate                   2.585891                       # Inst issue rate
system.switch_cpus.iq.vec_alu_accesses              0                       # Number of vector alu accesses
system.switch_cpus.iq.vec_inst_queue_reads            0                       # Number of vector instruction queue reads
system.switch_cpus.iq.vec_inst_queue_wakeup_accesses            0                       # Number of vector instruction queue wakeup accesses
system.switch_cpus.iq.vec_inst_queue_writes            0                       # Number of vector instruction queue writes
system.switch_cpus.itb.rdAccesses                   0                       # TLB accesses on read requests
system.switch_cpus.itb.rdMisses                     0                       # TLB misses on read requests
system.switch_cpus.itb.wrAccesses            49250754                       # TLB accesses on write requests
system.switch_cpus.itb.wrMisses                 49397                       # TLB misses on write requests
system.switch_cpus.memDep0.conflictingLoads     10925775                       # Number of conflicting loads.
system.switch_cpus.memDep0.conflictingStores       993570                       # Number of conflicting stores.
system.switch_cpus.memDep0.insertedLoads    136632992                       # Number of loads inserted to the mem dependence unit.
system.switch_cpus.memDep0.insertedStores     40589334                       # Number of stores inserted to the mem dependence unit.
system.switch_cpus.misc_regfile_reads       284782187                       # number of misc regfile reads
system.switch_cpus.numCycles                329426111                       # number of cpu cycles simulated
system.switch_cpus.numWorkItemsCompleted            0                       # number of work items this cpu completed
system.switch_cpus.numWorkItemsStarted              0                       # number of work items this cpu started
system.switch_cpus.rename.BlockCycles       141669068                       # Number of cycles rename is blocking
system.switch_cpus.rename.CommittedMaps     748425762                       # Number of HB maps that are committed
system.switch_cpus.rename.IQFullEvents       12515326                       # Number of times rename has blocked due to IQ full
system.switch_cpus.rename.IdleCycles         56315228                       # Number of cycles rename is idle
system.switch_cpus.rename.LQFullEvents        3235288                       # Number of times rename has blocked due to LQ full
system.switch_cpus.rename.ROBFullEvents           201                       # Number of times rename has blocked due to ROB full
system.switch_cpus.rename.RenameLookups    1877869754                       # Number of register rename lookups that rename has made
system.switch_cpus.rename.RenamedInsts      786478801                       # Number of instructions processed by rename
system.switch_cpus.rename.RenamedOperands    766694085                       # Number of destination operands rename has renamed
system.switch_cpus.rename.RunCycles         113471328                       # Number of cycles rename is running
system.switch_cpus.rename.SquashCycles         472896                       # Number of cycles rename is squashing
system.switch_cpus.rename.UnblockCycles      16948639                       # Number of cycles rename is unblocking
system.switch_cpus.rename.UndoneMaps         18268237                       # Number of HB maps that are undone due to squashing
system.switch_cpus.rename.fp_rename_lookups   1194570907                       # Number of floating rename lookups
system.switch_cpus.rename.int_rename_lookups    415676364                       # Number of integer rename lookups
system.switch_cpus.rename.serializeStallCycles       197320                       # count of cycles rename stalled for serializing inst
system.switch_cpus.rename.serializingInsts        32249                       # count of serializing insts renamed
system.switch_cpus.rename.skidInsts          39640858                       # count of insts added to the skid buffer
system.switch_cpus.rename.tempSerializingInsts        39334                       # count of temporary serializing insts renamed
system.switch_cpus.rob.rob_reads           1063192667                       # The number of ROB reads
system.switch_cpus.rob.rob_writes          1567670081                       # The number of ROB writes
system.switch_cpus.timesIdled                   59853                       # Number of times that the entire CPU went into an idle state and unscheduled itself
system.tol2bus.snoop_filter.hit_multi_requests            0                       # Number of requests hitting in the snoop filter with multiple (>1) holders of the requested data.
system.tol2bus.snoop_filter.hit_multi_snoops            0                       # Number of snoops hitting in the snoop filter with multiple (>1) holders of the requested data.
system.tol2bus.snoop_filter.hit_single_requests      3559102                       # Number of requests hitting in the snoop filter with a single holder of the requested data.
system.tol2bus.snoop_filter.hit_single_snoops         1442                       # Number of snoops hitting in the snoop filter with a single holder of the requested data.
system.tol2bus.snoop_filter.tot_requests      7118018                       # Total number of requests made to the snoop filter.
system.tol2bus.snoop_filter.tot_snoops           1442                       # Total number of snoops made to the snoop filter.
system.membus.pwrStateResidencyTicks::UNDEFINED 1234273924500                       # Cumulative time (in ticks) in various power states
system.membus.trans_dist::ReadResp              55876                       # Transaction distribution
system.membus.trans_dist::WritebackDirty       366580                       # Transaction distribution
system.membus.trans_dist::CleanEvict            55843                       # Transaction distribution
system.membus.trans_dist::ReadExReq            366480                       # Transaction distribution
system.membus.trans_dist::ReadExResp           366480                       # Transaction distribution
system.membus.trans_dist::ReadSharedReq         55876                       # Transaction distribution
system.membus.pkt_count_system.l2.mem_side::system.mem_ctrls.port      1267135                       # Packet count per connected master and slave (bytes)
system.membus.pkt_count_system.l2.mem_side::total      1267135                       # Packet count per connected master and slave (bytes)
system.membus.pkt_count::total                1267135                       # Packet count per connected master and slave (bytes)
system.membus.pkt_size_system.l2.mem_side::system.mem_ctrls.port     50491904                       # Cumulative packet size per connected master and slave (bytes)
system.membus.pkt_size_system.l2.mem_side::total     50491904                       # Cumulative packet size per connected master and slave (bytes)
system.membus.pkt_size::total                50491904                       # Cumulative packet size per connected master and slave (bytes)
system.membus.snoops                                0                       # Total snoops (count)
system.membus.snoopTraffic                          0                       # Total snoop traffic (bytes)
system.membus.snoop_fanout::samples            422356                       # Request fanout histogram
system.membus.snoop_fanout::mean                    0                       # Request fanout histogram
system.membus.snoop_fanout::stdev                   0                       # Request fanout histogram
system.membus.snoop_fanout::underflows              0      0.00%      0.00% # Request fanout histogram
system.membus.snoop_fanout::0                  422356    100.00%    100.00% # Request fanout histogram
system.membus.snoop_fanout::1                       0      0.00%    100.00% # Request fanout histogram
system.membus.snoop_fanout::overflows               0      0.00%    100.00% # Request fanout histogram
system.membus.snoop_fanout::min_value               0                       # Request fanout histogram
system.membus.snoop_fanout::max_value               0                       # Request fanout histogram
system.membus.snoop_fanout::total              422356                       # Request fanout histogram
system.membus.reqLayer2.occupancy          2438126039                       # Layer occupancy (ticks)
system.membus.reqLayer2.utilization               1.5                       # Layer utilization (%)
system.membus.respLayer1.occupancy         2354111916                       # Layer occupancy (ticks)
system.membus.respLayer1.utilization              1.4                       # Layer utilization (%)
system.switch_cpus.pwrStateResidencyTicks::OFF 1234273924500                       # Cumulative time (in ticks) in various power states
system.switch_cpus.dtb.walker.pwrStateResidencyTicks::UNDEFINED 1234273924500                       # Cumulative time (in ticks) in various power states
system.switch_cpus.itb.walker.pwrStateResidencyTicks::UNDEFINED 1234273924500                       # Cumulative time (in ticks) in various power states
system.tol2bus.pwrStateResidencyTicks::UNDEFINED 1234273924500                       # Cumulative time (in ticks) in various power states
system.tol2bus.trans_dist::ReadResp            611175                       # Transaction distribution
system.tol2bus.trans_dist::WritebackDirty      3345133                       # Transaction distribution
system.tol2bus.trans_dist::WritebackClean       120920                       # Transaction distribution
system.tol2bus.trans_dist::CleanEvict          514752                       # Transaction distribution
system.tol2bus.trans_dist::ReadExReq          2945765                       # Transaction distribution
system.tol2bus.trans_dist::ReadExResp         2945765                       # Transaction distribution
system.tol2bus.trans_dist::ReadCleanReq        120920                       # Transaction distribution
system.tol2bus.trans_dist::ReadSharedReq       490255                       # Transaction distribution
system.tol2bus.pkt_count_system.cpu.icache.mem_side::system.l2.cpu_side       362760                       # Packet count per connected master and slave (bytes)
system.tol2bus.pkt_count_system.cpu.dcache.mem_side::system.l2.cpu_side     10308060                       # Packet count per connected master and slave (bytes)
system.tol2bus.pkt_count::total              10670820                       # Packet count per connected master and slave (bytes)
system.tol2bus.pkt_size_system.cpu.icache.mem_side::system.l2.cpu_side     15477760                       # Cumulative packet size per connected master and slave (bytes)
system.tol2bus.pkt_size_system.cpu.dcache.mem_side::system.l2.cpu_side    410532672                       # Cumulative packet size per connected master and slave (bytes)
system.tol2bus.pkt_size::total              426010432                       # Cumulative packet size per connected master and slave (bytes)
system.tol2bus.snoops                          423865                       # Total snoops (count)
system.tol2bus.snoopTraffic                  23461120                       # Total snoop traffic (bytes)
system.tol2bus.snoop_fanout::samples          3982781                       # Request fanout histogram
system.tol2bus.snoop_fanout::mean            0.000362                       # Request fanout histogram
system.tol2bus.snoop_fanout::stdev           0.019024                       # Request fanout histogram
system.tol2bus.snoop_fanout::underflows             0      0.00%      0.00% # Request fanout histogram
system.tol2bus.snoop_fanout::0                3981339     99.96%     99.96% # Request fanout histogram
system.tol2bus.snoop_fanout::1                   1442      0.04%    100.00% # Request fanout histogram
system.tol2bus.snoop_fanout::2                      0      0.00%    100.00% # Request fanout histogram
system.tol2bus.snoop_fanout::3                      0      0.00%    100.00% # Request fanout histogram
system.tol2bus.snoop_fanout::4                      0      0.00%    100.00% # Request fanout histogram
system.tol2bus.snoop_fanout::overflows              0      0.00%    100.00% # Request fanout histogram
system.tol2bus.snoop_fanout::min_value              0                       # Request fanout histogram
system.tol2bus.snoop_fanout::max_value              1                       # Request fanout histogram
system.tol2bus.snoop_fanout::total            3982781                       # Request fanout histogram
system.tol2bus.reqLayer0.occupancy         6660546862                       # Layer occupancy (ticks)
system.tol2bus.reqLayer0.utilization              4.0                       # Layer utilization (%)
system.tol2bus.respLayer1.occupancy        5154030998                       # Layer occupancy (ticks)
system.tol2bus.respLayer1.utilization             3.1                       # Layer utilization (%)
system.tol2bus.respLayer0.occupancy         181381497                       # Layer occupancy (ticks)
system.tol2bus.respLayer0.utilization             0.1                       # Layer utilization (%)
system.voltage_domain.voltage                       1                       # Voltage in Volts
system.clk_domain.clock                          1000                       # Clock period in ticks
system.l2.pwrStateResidencyTicks::UNDEFINED 1234273924500                       # Cumulative time (in ticks) in various power states
system.l2.demand_hits::.switch_cpus.inst       120054                       # number of demand (read+write) hits
system.l2.demand_hits::.switch_cpus.data      3014530                       # number of demand (read+write) hits
system.l2.demand_hits::total                  3134584                       # number of demand (read+write) hits
system.l2.overall_hits::.switch_cpus.inst       120054                       # number of overall hits
system.l2.overall_hits::.switch_cpus.data      3014530                       # number of overall hits
system.l2.overall_hits::total                 3134584                       # number of overall hits
system.l2.demand_misses::.switch_cpus.inst          866                       # number of demand (read+write) misses
system.l2.demand_misses::.switch_cpus.data       421490                       # number of demand (read+write) misses
system.l2.demand_misses::total                 422356                       # number of demand (read+write) misses
system.l2.overall_misses::.switch_cpus.inst          866                       # number of overall misses
system.l2.overall_misses::.switch_cpus.data       421490                       # number of overall misses
system.l2.overall_misses::total                422356                       # number of overall misses
system.l2.demand_miss_latency::.switch_cpus.inst     79148480                       # number of demand (read+write) miss cycles
system.l2.demand_miss_latency::.switch_cpus.data  40307187481                       # number of demand (read+write) miss cycles
system.l2.demand_miss_latency::total      40386335961                       # number of demand (read+write) miss cycles
system.l2.overall_miss_latency::.switch_cpus.inst     79148480                       # number of overall miss cycles
system.l2.overall_miss_latency::.switch_cpus.data  40307187481                       # number of overall miss cycles
system.l2.overall_miss_latency::total     40386335961                       # number of overall miss cycles
system.l2.demand_accesses::.switch_cpus.inst       120920                       # number of demand (read+write) accesses
system.l2.demand_accesses::.switch_cpus.data      3436020                       # number of demand (read+write) accesses
system.l2.demand_accesses::total              3556940                       # number of demand (read+write) accesses
system.l2.overall_accesses::.switch_cpus.inst       120920                       # number of overall (read+write) accesses
system.l2.overall_accesses::.switch_cpus.data      3436020                       # number of overall (read+write) accesses
system.l2.overall_accesses::total             3556940                       # number of overall (read+write) accesses
system.l2.demand_miss_rate::.switch_cpus.inst     0.007162                       # miss rate for demand accesses
system.l2.demand_miss_rate::.switch_cpus.data     0.122668                       # miss rate for demand accesses
system.l2.demand_miss_rate::total            0.118741                       # miss rate for demand accesses
system.l2.overall_miss_rate::.switch_cpus.inst     0.007162                       # miss rate for overall accesses
system.l2.overall_miss_rate::.switch_cpus.data     0.122668                       # miss rate for overall accesses
system.l2.overall_miss_rate::total           0.118741                       # miss rate for overall accesses
system.l2.demand_avg_miss_latency::.switch_cpus.inst 91395.473441                       # average overall miss latency
system.l2.demand_avg_miss_latency::.switch_cpus.data 95630.234361                       # average overall miss latency
system.l2.demand_avg_miss_latency::total 95621.551395                       # average overall miss latency
system.l2.overall_avg_miss_latency::.switch_cpus.inst 91395.473441                       # average overall miss latency
system.l2.overall_avg_miss_latency::.switch_cpus.data 95630.234361                       # average overall miss latency
system.l2.overall_avg_miss_latency::total 95621.551395                       # average overall miss latency
system.l2.blocked_cycles::no_mshrs           72325014                       # number of cycles access was blocked
system.l2.blocked_cycles::no_targets                0                       # number of cycles access was blocked
system.l2.blocked::no_mshrs                    422356                       # number of cycles access was blocked
system.l2.blocked::no_targets                       0                       # number of cycles access was blocked
system.l2.avg_blocked_cycles::no_mshrs     171.241829                       # average number of cycles each access was blocked
system.l2.avg_blocked_cycles::no_targets          nan                       # average number of cycles each access was blocked
system.l2.writebacks::.writebacks              366580                       # number of writebacks
system.l2.writebacks::total                    366580                       # number of writebacks
system.l2.demand_mshr_misses::.switch_cpus.inst          866                       # number of demand (read+write) MSHR misses
system.l2.demand_mshr_misses::.switch_cpus.data       421490                       # number of demand (read+write) MSHR misses
system.l2.demand_mshr_misses::total            422356                       # number of demand (read+write) MSHR misses
system.l2.overall_mshr_misses::.switch_cpus.inst          866                       # number of overall MSHR misses
system.l2.overall_mshr_misses::.switch_cpus.data       421490                       # number of overall MSHR misses
system.l2.overall_mshr_misses::total           422356                       # number of overall MSHR misses
system.l2.demand_mshr_miss_latency::.switch_cpus.inst     70488480                       # number of demand (read+write) MSHR miss cycles
system.l2.demand_mshr_miss_latency::.switch_cpus.data  36092287481                       # number of demand (read+write) MSHR miss cycles
system.l2.demand_mshr_miss_latency::total  36162775961                       # number of demand (read+write) MSHR miss cycles
system.l2.overall_mshr_miss_latency::.switch_cpus.inst     70488480                       # number of overall MSHR miss cycles
system.l2.overall_mshr_miss_latency::.switch_cpus.data  36092287481                       # number of overall MSHR miss cycles
system.l2.overall_mshr_miss_latency::total  36162775961                       # number of overall MSHR miss cycles
system.l2.demand_mshr_miss_rate::.switch_cpus.inst     0.007162                       # mshr miss rate for demand accesses
system.l2.demand_mshr_miss_rate::.switch_cpus.data     0.122668                       # mshr miss rate for demand accesses
system.l2.demand_mshr_miss_rate::total       0.118741                       # mshr miss rate for demand accesses
system.l2.overall_mshr_miss_rate::.switch_cpus.inst     0.007162                       # mshr miss rate for overall accesses
system.l2.overall_mshr_miss_rate::.switch_cpus.data     0.122668                       # mshr miss rate for overall accesses
system.l2.overall_mshr_miss_rate::total      0.118741                       # mshr miss rate for overall accesses
system.l2.demand_avg_mshr_miss_latency::.switch_cpus.inst 81395.473441                       # average overall mshr miss latency
system.l2.demand_avg_mshr_miss_latency::.switch_cpus.data 85630.234361                       # average overall mshr miss latency
system.l2.demand_avg_mshr_miss_latency::total 85621.551395                       # average overall mshr miss latency
system.l2.overall_avg_mshr_miss_latency::.switch_cpus.inst 81395.473441                       # average overall mshr miss latency
system.l2.overall_avg_mshr_miss_latency::.switch_cpus.data 85630.234361                       # average overall mshr miss latency
system.l2.overall_avg_mshr_miss_latency::total 85621.551395                       # average overall mshr miss latency
system.l2.replacements                         423865                       # number of replacements
system.l2.WritebackDirty_hits::.writebacks      2978553                       # number of WritebackDirty hits
system.l2.WritebackDirty_hits::total          2978553                       # number of WritebackDirty hits
system.l2.WritebackDirty_accesses::.writebacks      2978553                       # number of WritebackDirty accesses(hits+misses)
system.l2.WritebackDirty_accesses::total      2978553                       # number of WritebackDirty accesses(hits+misses)
system.l2.WritebackClean_hits::.writebacks       120920                       # number of WritebackClean hits
system.l2.WritebackClean_hits::total           120920                       # number of WritebackClean hits
system.l2.WritebackClean_accesses::.writebacks       120920                       # number of WritebackClean accesses(hits+misses)
system.l2.WritebackClean_accesses::total       120920                       # number of WritebackClean accesses(hits+misses)
system.l2.ReadExReq_hits::.switch_cpus.data      2579285                       # number of ReadExReq hits
system.l2.ReadExReq_hits::total               2579285                       # number of ReadExReq hits
system.l2.ReadExReq_misses::.switch_cpus.data       366480                       # number of ReadExReq misses
system.l2.ReadExReq_misses::total              366480                       # number of ReadExReq misses
system.l2.ReadExReq_miss_latency::.switch_cpus.data  35240229499                       # number of ReadExReq miss cycles
system.l2.ReadExReq_miss_latency::total   35240229499                       # number of ReadExReq miss cycles
system.l2.ReadExReq_accesses::.switch_cpus.data      2945765                       # number of ReadExReq accesses(hits+misses)
system.l2.ReadExReq_accesses::total           2945765                       # number of ReadExReq accesses(hits+misses)
system.l2.ReadExReq_miss_rate::.switch_cpus.data     0.124409                       # miss rate for ReadExReq accesses
system.l2.ReadExReq_miss_rate::total         0.124409                       # miss rate for ReadExReq accesses
system.l2.ReadExReq_avg_miss_latency::.switch_cpus.data 96158.670320                       # average ReadExReq miss latency
system.l2.ReadExReq_avg_miss_latency::total 96158.670320                       # average ReadExReq miss latency
system.l2.ReadExReq_mshr_misses::.switch_cpus.data       366480                       # number of ReadExReq MSHR misses
system.l2.ReadExReq_mshr_misses::total         366480                       # number of ReadExReq MSHR misses
system.l2.ReadExReq_mshr_miss_latency::.switch_cpus.data  31575429499                       # number of ReadExReq MSHR miss cycles
system.l2.ReadExReq_mshr_miss_latency::total  31575429499                       # number of ReadExReq MSHR miss cycles
system.l2.ReadExReq_mshr_miss_rate::.switch_cpus.data     0.124409                       # mshr miss rate for ReadExReq accesses
system.l2.ReadExReq_mshr_miss_rate::total     0.124409                       # mshr miss rate for ReadExReq accesses
system.l2.ReadExReq_avg_mshr_miss_latency::.switch_cpus.data 86158.670320                       # average ReadExReq mshr miss latency
system.l2.ReadExReq_avg_mshr_miss_latency::total 86158.670320                       # average ReadExReq mshr miss latency
system.l2.ReadCleanReq_hits::.switch_cpus.inst       120054                       # number of ReadCleanReq hits
system.l2.ReadCleanReq_hits::total             120054                       # number of ReadCleanReq hits
system.l2.ReadCleanReq_misses::.switch_cpus.inst          866                       # number of ReadCleanReq misses
system.l2.ReadCleanReq_misses::total              866                       # number of ReadCleanReq misses
system.l2.ReadCleanReq_miss_latency::.switch_cpus.inst     79148480                       # number of ReadCleanReq miss cycles
system.l2.ReadCleanReq_miss_latency::total     79148480                       # number of ReadCleanReq miss cycles
system.l2.ReadCleanReq_accesses::.switch_cpus.inst       120920                       # number of ReadCleanReq accesses(hits+misses)
system.l2.ReadCleanReq_accesses::total         120920                       # number of ReadCleanReq accesses(hits+misses)
system.l2.ReadCleanReq_miss_rate::.switch_cpus.inst     0.007162                       # miss rate for ReadCleanReq accesses
system.l2.ReadCleanReq_miss_rate::total      0.007162                       # miss rate for ReadCleanReq accesses
system.l2.ReadCleanReq_avg_miss_latency::.switch_cpus.inst 91395.473441                       # average ReadCleanReq miss latency
system.l2.ReadCleanReq_avg_miss_latency::total 91395.473441                       # average ReadCleanReq miss latency
system.l2.ReadCleanReq_mshr_misses::.switch_cpus.inst          866                       # number of ReadCleanReq MSHR misses
system.l2.ReadCleanReq_mshr_misses::total          866                       # number of ReadCleanReq MSHR misses
system.l2.ReadCleanReq_mshr_miss_latency::.switch_cpus.inst     70488480                       # number of ReadCleanReq MSHR miss cycles
system.l2.ReadCleanReq_mshr_miss_latency::total     70488480                       # number of ReadCleanReq MSHR miss cycles
system.l2.ReadCleanReq_mshr_miss_rate::.switch_cpus.inst     0.007162                       # mshr miss rate for ReadCleanReq accesses
system.l2.ReadCleanReq_mshr_miss_rate::total     0.007162                       # mshr miss rate for ReadCleanReq accesses
system.l2.ReadCleanReq_avg_mshr_miss_latency::.switch_cpus.inst 81395.473441                       # average ReadCleanReq mshr miss latency
system.l2.ReadCleanReq_avg_mshr_miss_latency::total 81395.473441                       # average ReadCleanReq mshr miss latency
system.l2.ReadSharedReq_hits::.switch_cpus.data       435245                       # number of ReadSharedReq hits
system.l2.ReadSharedReq_hits::total            435245                       # number of ReadSharedReq hits
system.l2.ReadSharedReq_misses::.switch_cpus.data        55010                       # number of ReadSharedReq misses
system.l2.ReadSharedReq_misses::total           55010                       # number of ReadSharedReq misses
system.l2.ReadSharedReq_miss_latency::.switch_cpus.data   5066957982                       # number of ReadSharedReq miss cycles
system.l2.ReadSharedReq_miss_latency::total   5066957982                       # number of ReadSharedReq miss cycles
system.l2.ReadSharedReq_accesses::.switch_cpus.data       490255                       # number of ReadSharedReq accesses(hits+misses)
system.l2.ReadSharedReq_accesses::total        490255                       # number of ReadSharedReq accesses(hits+misses)
system.l2.ReadSharedReq_miss_rate::.switch_cpus.data     0.112207                       # miss rate for ReadSharedReq accesses
system.l2.ReadSharedReq_miss_rate::total     0.112207                       # miss rate for ReadSharedReq accesses
system.l2.ReadSharedReq_avg_miss_latency::.switch_cpus.data 92109.761534                       # average ReadSharedReq miss latency
[...]
system.cpu.itb_walker_cache.blocked_cycles::no_mshrs            0                       # number of cycles access was blocked
system.cpu.itb_walker_cache.blocked_cycles::no_targets            0                       # number of cycles access was blocked
system.cpu.itb_walker_cache.blocked::no_mshrs            0                       # number of cycles access was blocked
system.cpu.itb_walker_cache.blocked::no_targets            0                       # number of cycles access was blocked
system.cpu.itb_walker_cache.avg_blocked_cycles::no_mshrs          nan                       # average number of cycles each access was blocked
system.cpu.itb_walker_cache.avg_blocked_cycles::no_targets          nan                       # average number of cycles each access was blocked
system.cpu.itb_walker_cache.replacements            0                       # number of replacements
system.cpu.itb_walker_cache.tags.pwrStateResidencyTicks::UNDEFINED 1234273924500                       # Cumulative time (in ticks) in various power states
system.cpu.itb_walker_cache.tags.tagsinuse            0                       # Cycle average of tags in use
system.cpu.itb_walker_cache.tags.total_refs            0                       # Total number of references to valid blocks.
system.cpu.itb_walker_cache.tags.sampled_refs            0                       # Sample count of references to valid blocks.
system.cpu.itb_walker_cache.tags.avg_refs          nan                       # Average number of references to valid blocks.
system.cpu.itb_walker_cache.tags.warmup_cycle            0                       # Cycle when the warmup percentage was hit.
system.cpu.itb_walker_cache.tags.tag_accesses            0                       # Number of tag accesses
system.cpu.itb_walker_cache.tags.data_accesses            0                       # Number of data accesses
system.cpu.itb.walker.pwrStateResidencyTicks::UNDEFINED 1234273924500                       # Cumulative time (in ticks) in various power states
system.cpu.dtb_walker_cache.pwrStateResidencyTicks::UNDEFINED 1234273924500                       # Cumulative time (in ticks) in various power states
system.cpu.dtb_walker_cache.blocked_cycles::no_mshrs            0                       # number of cycles access was blocked
system.cpu.dtb_walker_cache.blocked_cycles::no_targets            0                       # number of cycles access was blocked
system.cpu.dtb_walker_cache.blocked::no_mshrs            0                       # number of cycles access was blocked
system.cpu.dtb_walker_cache.blocked::no_targets            0                       # number of cycles access was blocked
system.cpu.dtb_walker_cache.avg_blocked_cycles::no_mshrs          nan                       # average number of cycles each access was blocked
system.cpu.dtb_walker_cache.avg_blocked_cycles::no_targets          nan                       # average number of cycles each access was blocked
system.cpu.dtb_walker_cache.replacements            0                       # number of replacements
system.cpu.dtb_walker_cache.tags.pwrStateResidencyTicks::UNDEFINED 1234273924500                       # Cumulative time (in ticks) in various power states
system.cpu.dtb_walker_cache.tags.tagsinuse            0                       # Cycle average of tags in use
system.cpu.dtb_walker_cache.tags.total_refs            0                       # Total number of references to valid blocks.
system.cpu.dtb_walker_cache.tags.sampled_refs            0                       # Sample count of references to valid blocks.
system.cpu.dtb_walker_cache.tags.avg_refs          nan                       # Average number of references to valid blocks.
system.cpu.dtb_walker_cache.tags.warmup_cycle            0                       # Cycle when the warmup percentage was hit.
system.cpu.dtb_walker_cache.tags.tag_accesses            0                       # Number of tag accesses
system.cpu.dtb_walker_cache.tags.data_accesses            0                       # Number of data accesses
system.cpu.dcache.pwrStateResidencyTicks::UNDEFINED 1234273924500                       # Cumulative time (in ticks) in various power states
system.cpu.dcache.demand_hits::.cpu.data    351409817                       # number of demand (read+write) hits
system.cpu.dcache.demand_hits::.switch_cpus.data    158296102                       # number of demand (read+write) hits
system.cpu.dcache.demand_hits::total        509705919                       # number of demand (read+write) hits
system.cpu.dcache.overall_hits::.cpu.data    351414878                       # number of overall hits
system.cpu.dcache.overall_hits::.switch_cpus.data    158296102                       # number of overall hits
system.cpu.dcache.overall_hits::total       509710980                       # number of overall hits
system.cpu.dcache.demand_misses::.cpu.data      6780379                       # number of demand (read+write) misses
system.cpu.dcache.demand_misses::.switch_cpus.data      3436020                       # number of demand (read+write) misses
system.cpu.dcache.demand_misses::total       10216399                       # number of demand (read+write) misses
system.cpu.dcache.overall_misses::.cpu.data      6780680                       # number of overall misses
system.cpu.dcache.overall_misses::.switch_cpus.data      3436020                       # number of overall misses
system.cpu.dcache.overall_misses::total      10216700                       # number of overall misses
system.cpu.dcache.demand_miss_latency::.switch_cpus.data  82319068082                       # number of demand (read+write) miss cycles
system.cpu.dcache.demand_miss_latency::total  82319068082                       # number of demand (read+write) miss cycles
system.cpu.dcache.overall_miss_latency::.switch_cpus.data  82319068082                       # number of overall miss cycles
system.cpu.dcache.overall_miss_latency::total  82319068082                       # number of overall miss cycles
system.cpu.dcache.demand_accesses::.cpu.data    358190196                       # number of demand (read+write) accesses
system.cpu.dcache.demand_accesses::.switch_cpus.data    161732122                       # number of demand (read+write) accesses
system.cpu.dcache.demand_accesses::total    519922318                       # number of demand (read+write) accesses
system.cpu.dcache.overall_accesses::.cpu.data    358195558                       # number of overall (read+write) accesses
system.cpu.dcache.overall_accesses::.switch_cpus.data    161732122                       # number of overall (read+write) accesses
system.cpu.dcache.overall_accesses::total    519927680                       # number of overall (read+write) accesses
system.cpu.dcache.demand_miss_rate::.cpu.data     0.018930                       # miss rate for demand accesses
system.cpu.dcache.demand_miss_rate::.switch_cpus.data     0.021245                       # miss rate for demand accesses
system.cpu.dcache.demand_miss_rate::total     0.019650                       # miss rate for demand accesses
system.cpu.dcache.overall_miss_rate::.cpu.data     0.018930                       # miss rate for overall accesses
system.cpu.dcache.overall_miss_rate::.switch_cpus.data     0.021245                       # miss rate for overall accesses
system.cpu.dcache.overall_miss_rate::total     0.019650                       # miss rate for overall accesses
system.cpu.dcache.demand_avg_miss_latency::.switch_cpus.data 23957.680130                       # average overall miss latency
system.cpu.dcache.demand_avg_miss_latency::total  8057.542396                       # average overall miss latency
system.cpu.dcache.overall_avg_miss_latency::.switch_cpus.data 23957.680130                       # average overall miss latency
system.cpu.dcache.overall_avg_miss_latency::total  8057.305009                       # average overall miss latency
system.cpu.dcache.blocked_cycles::no_mshrs    157466778                       # number of cycles access was blocked
system.cpu.dcache.blocked_cycles::no_targets            0                       # number of cycles access was blocked
system.cpu.dcache.blocked::no_mshrs           3436020                       # number of cycles access was blocked
system.cpu.dcache.blocked::no_targets               0                       # number of cycles access was blocked
system.cpu.dcache.avg_blocked_cycles::no_mshrs    45.828248                       # average number of cycles each access was blocked
system.cpu.dcache.avg_blocked_cycles::no_targets          nan                       # average number of cycles each access was blocked
system.cpu.dcache.writebacks::.writebacks      8854499                       # number of writebacks
system.cpu.dcache.writebacks::total           8854499                       # number of writebacks
system.cpu.dcache.demand_mshr_misses::.switch_cpus.data      3436020                       # number of demand (read+write) MSHR misses
system.cpu.dcache.demand_mshr_misses::total      3436020                       # number of demand (read+write) MSHR misses
system.cpu.dcache.overall_mshr_misses::.switch_cpus.data      3436020                       # number of overall MSHR misses
system.cpu.dcache.overall_mshr_misses::total      3436020                       # number of overall MSHR misses
system.cpu.dcache.demand_mshr_miss_latency::.switch_cpus.data  78883048082                       # number of demand (read+write) MSHR miss cycles
system.cpu.dcache.demand_mshr_miss_latency::total  78883048082                       # number of demand (read+write) MSHR miss cycles
system.cpu.dcache.overall_mshr_miss_latency::.switch_cpus.data  78883048082                       # number of overall MSHR miss cycles
system.cpu.dcache.overall_mshr_miss_latency::total  78883048082                       # number of overall MSHR miss cycles
system.cpu.dcache.demand_mshr_miss_rate::.switch_cpus.data     0.021245                       # mshr miss rate for demand accesses
system.cpu.dcache.demand_mshr_miss_rate::total     0.006609                       # mshr miss rate for demand accesses
system.cpu.dcache.overall_mshr_miss_rate::.switch_cpus.data     0.021245                       # mshr miss rate for overall accesses
system.cpu.dcache.overall_mshr_miss_rate::total     0.006609                       # mshr miss rate for overall accesses
system.cpu.dcache.demand_avg_mshr_miss_latency::.switch_cpus.data 22957.680130                       # average overall mshr miss latency
system.cpu.dcache.demand_avg_mshr_miss_latency::total 22957.680130                       # average overall mshr miss latency
system.cpu.dcache.overall_avg_mshr_miss_latency::.switch_cpus.data 22957.680130                       # average overall mshr miss latency
system.cpu.dcache.overall_avg_mshr_miss_latency::total 22957.680130                       # average overall mshr miss latency
system.cpu.dcache.replacements               10216188                       # number of replacements
system.cpu.dcache.ReadReq_hits::.cpu.data    274024604                       # number of ReadReq hits
system.cpu.dcache.ReadReq_hits::.switch_cpus.data    121290602                       # number of ReadReq hits
system.cpu.dcache.ReadReq_hits::total       395315206                       # number of ReadReq hits
system.cpu.dcache.ReadReq_misses::.cpu.data      1074422                       # number of ReadReq misses
system.cpu.dcache.ReadReq_misses::.switch_cpus.data       490255                       # number of ReadReq misses
system.cpu.dcache.ReadReq_misses::total       1564677                       # number of ReadReq misses
system.cpu.dcache.ReadReq_miss_latency::.switch_cpus.data  11176239000                       # number of ReadReq miss cycles
system.cpu.dcache.ReadReq_miss_latency::total  11176239000                       # number of ReadReq miss cycles
system.cpu.dcache.ReadReq_accesses::.cpu.data    275099026                       # number of ReadReq accesses(hits+misses)
system.cpu.dcache.ReadReq_accesses::.switch_cpus.data    121780857                       # number of ReadReq accesses(hits+misses)
system.cpu.dcache.ReadReq_accesses::total    396879883                       # number of ReadReq accesses(hits+misses)
system.cpu.dcache.ReadReq_miss_rate::.cpu.data     0.003906                       # miss rate for ReadReq accesses
system.cpu.dcache.ReadReq_miss_rate::.switch_cpus.data     0.004026                       # miss rate for ReadReq accesses
system.cpu.dcache.ReadReq_miss_rate::total     0.003942                       # miss rate for ReadReq accesses
system.cpu.dcache.ReadReq_avg_miss_latency::.switch_cpus.data 22796.787386                       # average ReadReq miss latency
system.cpu.dcache.ReadReq_avg_miss_latency::total  7142.840983                       # average ReadReq miss latency
system.cpu.dcache.ReadReq_mshr_misses::.switch_cpus.data       490255                       # number of ReadReq MSHR misses
system.cpu.dcache.ReadReq_mshr_misses::total       490255                       # number of ReadReq MSHR misses
system.cpu.dcache.ReadReq_mshr_miss_latency::.switch_cpus.data  10685984000                       # number of ReadReq MSHR miss cycles
system.cpu.dcache.ReadReq_mshr_miss_latency::total  10685984000                       # number of ReadReq MSHR miss cycles
system.cpu.dcache.ReadReq_mshr_miss_rate::.switch_cpus.data     0.004026                       # mshr miss rate for ReadReq accesses
system.cpu.dcache.ReadReq_mshr_miss_rate::total     0.001235                       # mshr miss rate for ReadReq accesses
system.cpu.dcache.ReadReq_avg_mshr_miss_latency::.switch_cpus.data 21796.787386                       # average ReadReq mshr miss latency
system.cpu.dcache.ReadReq_avg_mshr_miss_latency::total 21796.787386                       # average ReadReq mshr miss latency
system.cpu.dcache.WriteReq_hits::.cpu.data     77385213                       # number of WriteReq hits
system.cpu.dcache.WriteReq_hits::.switch_cpus.data     37005500                       # number of WriteReq hits
system.cpu.dcache.WriteReq_hits::total      114390713                       # number of WriteReq hits
system.cpu.dcache.WriteReq_misses::.cpu.data      5705957                       # number of WriteReq misses
system.cpu.dcache.WriteReq_misses::.switch_cpus.data      2945765                       # number of WriteReq misses
system.cpu.dcache.WriteReq_misses::total      8651722                       # number of WriteReq misses
system.cpu.dcache.WriteReq_miss_latency::.switch_cpus.data  71142829082                       # number of WriteReq miss cycles
system.cpu.dcache.WriteReq_miss_latency::total  71142829082                       # number of WriteReq miss cycles
system.cpu.dcache.WriteReq_accesses::.cpu.data     83091170                       # number of WriteReq accesses(hits+misses)
system.cpu.dcache.WriteReq_accesses::.switch_cpus.data     39951265                       # number of WriteReq accesses(hits+misses)
system.cpu.dcache.WriteReq_accesses::total    123042435                       # number of WriteReq accesses(hits+misses)
system.cpu.dcache.WriteReq_miss_rate::.cpu.data     0.068671                       # miss rate for WriteReq accesses
system.cpu.dcache.WriteReq_miss_rate::.switch_cpus.data     0.073734                       # miss rate for WriteReq accesses
system.cpu.dcache.WriteReq_miss_rate::total     0.070315                       # miss rate for WriteReq accesses
system.cpu.dcache.WriteReq_avg_miss_latency::.switch_cpus.data 24150.884094                       # average WriteReq miss latency
system.cpu.dcache.WriteReq_avg_miss_latency::total  8222.967530                       # average WriteReq miss latency
system.cpu.dcache.WriteReq_mshr_misses::.switch_cpus.data      2945765                       # number of WriteReq MSHR misses
system.cpu.dcache.WriteReq_mshr_misses::total      2945765                       # number of WriteReq MSHR misses
system.cpu.dcache.WriteReq_mshr_miss_latency::.switch_cpus.data  68197064082                       # number of WriteReq MSHR miss cycles
system.cpu.dcache.WriteReq_mshr_miss_latency::total  68197064082                       # number of WriteReq MSHR miss cycles
system.cpu.dcache.WriteReq_mshr_miss_rate::.switch_cpus.data     0.073734                       # mshr miss rate for WriteReq accesses
system.cpu.dcache.WriteReq_mshr_miss_rate::total     0.023941                       # mshr miss rate for WriteReq accesses
system.cpu.dcache.WriteReq_avg_mshr_miss_latency::.switch_cpus.data 23150.884094                       # average WriteReq mshr miss latency
system.cpu.dcache.WriteReq_avg_mshr_miss_latency::total 23150.884094                       # average WriteReq mshr miss latency
system.cpu.dcache.SoftPFReq_hits::.cpu.data         5061                       # number of SoftPFReq hits
system.cpu.dcache.SoftPFReq_hits::total          5061                       # number of SoftPFReq hits
system.cpu.dcache.SoftPFReq_misses::.cpu.data          301                       # number of SoftPFReq misses
system.cpu.dcache.SoftPFReq_misses::total          301                       # number of SoftPFReq misses
system.cpu.dcache.SoftPFReq_accesses::.cpu.data         5362                       # number of SoftPFReq accesses(hits+misses)
system.cpu.dcache.SoftPFReq_accesses::total         5362                       # number of SoftPFReq accesses(hits+misses)
system.cpu.dcache.SoftPFReq_miss_rate::.cpu.data     0.056136                       # miss rate for SoftPFReq accesses
system.cpu.dcache.SoftPFReq_miss_rate::total     0.056136                       # miss rate for SoftPFReq accesses
system.cpu.dcache.tags.pwrStateResidencyTicks::UNDEFINED 1234273924500                       # Cumulative time (in ticks) in various power states
system.cpu.dcache.tags.tagsinuse           511.983547                       # Cycle average of tags in use
system.cpu.dcache.tags.total_refs           519575549                       # Total number of references to valid blocks.
system.cpu.dcache.tags.sampled_refs          10216188                       # Sample count of references to valid blocks.
system.cpu.dcache.tags.avg_refs             50.858065                       # Average number of references to valid blocks.
system.cpu.dcache.tags.warmup_cycle              1000                       # Cycle when the warmup percentage was hit.
system.cpu.dcache.tags.occ_blocks::.cpu.data   443.895170                       # Average occupied blocks per requestor
system.cpu.dcache.tags.occ_blocks::.switch_cpus.data    68.088377                       # Average occupied blocks per requestor
system.cpu.dcache.tags.occ_percent::.cpu.data     0.866983                       # Average percentage of cache occupancy
system.cpu.dcache.tags.occ_percent::.switch_cpus.data     0.132985                       # Average percentage of cache occupancy
system.cpu.dcache.tags.occ_percent::total     0.999968                       # Average percentage of cache occupancy
system.cpu.dcache.tags.occ_task_id_blocks::1024          512                       # Occupied blocks per task id
system.cpu.dcache.tags.age_task_id_blocks_1024::0            8                       # Occupied blocks per task id
system.cpu.dcache.tags.age_task_id_blocks_1024::1           40                       # Occupied blocks per task id
system.cpu.dcache.tags.age_task_id_blocks_1024::2          400                       # Occupied blocks per task id
system.cpu.dcache.tags.age_task_id_blocks_1024::3           64                       # Occupied blocks per task id
system.cpu.dcache.tags.occ_task_id_percent::1024            1                       # Percentage of cache occupancy per task id
system.cpu.dcache.tags.tag_accesses        2089927420                       # Number of tag accesses
system.cpu.dcache.tags.data_accesses       2089927420                       # Number of data accesses

---------- End Simulation Statistics   ----------
