
---------- Begin Simulation Statistics ----------
final_tick                               1317709737500                       # Number of ticks from beginning of simulation (restored from checkpoints and never reset)
host_inst_rate                                 286377                       # Simulator instruction rate (inst/s)
host_mem_usage                                4400164                       # Number of bytes of host memory used
host_op_rate                                   489950                       # Simulator op (including micro ops) rate (op/s)
host_seconds                                  5237.84                       # Real time elapsed on the host
host_tick_rate                               52560688                       # Simulator tick rate (ticks/s)
sim_freq                                 1000000000000                       # Frequency of simulated ticks
sim_insts                                  1500000001                       # Number of instructions simulated
sim_ops                                    2566282482                       # Number of ops (including micro ops) simulated
sim_seconds                                  0.275305                       # Number of seconds simulated
sim_ticks                                275304629000                       # Number of ticks simulated
system.cpu.committedInsts                           0                       # Number of instructions committed
system.cpu.committedOps                             0                       # Number of ops (including micro ops) committed
system.cpu.dtb.rdAccesses                           0                       # TLB accesses on read requests
system.cpu.dtb.rdMisses                             0                       # TLB misses on read requests
system.cpu.dtb.wrAccesses                           0                       # TLB accesses on write requests
system.cpu.dtb.wrMisses                             0                       # TLB misses on write requests
system.cpu.idle_fraction                            0                       # Percentage of idle cycles
system.cpu.itb.rdAccesses                           0                       # TLB accesses on read requests
system.cpu.itb.rdMisses                             0                       # TLB misses on read requests
system.cpu.itb.wrAccesses                           0                       # TLB accesses on write requests
system.cpu.itb.wrMisses                             0                       # TLB misses on write requests
system.cpu.not_idle_fraction                        1                       # Percentage of non-idle cycles
system.cpu.numCycles                                0                       # number of cpu cycles simulated
system.cpu.numWorkItemsCompleted                    0                       # number of work items this cpu completed
system.cpu.numWorkItemsStarted                      0                       # number of work items this cpu started
system.cpu.num_busy_cycles                          0                       # Number of busy cycles
system.cpu.num_conditional_control_insts            0                       # number of instructions that are conditional controls
system.cpu.num_fp_alu_accesses                      0                       # Number of float alu accesses
system.cpu.num_fp_insts                             0                       # number of float instructions
system.cpu.num_fp_register_reads                    0                       # number of times the floating registers were read
system.cpu.num_fp_register_writes                   0                       # number of times the floating registers were written
system.cpu.num_func_calls                           0                       # number of times a function call or return occured
system.cpu.num_idle_cycles                          0                       # Number of idle cycles
system.cpu.num_int_alu_accesses                     0                       # Number of integer alu accesses
system.cpu.num_int_insts                            0                       # number of integer instructions
system.cpu.num_int_register_reads                   0                       # number of times the integer registers were read
system.cpu.num_int_register_writes                  0                       # number of times the integer registers were written
system.cpu.num_load_insts                           0                       # Number of load instructions
system.cpu.num_mem_refs                             0                       # number of memory refs
system.cpu.num_store_insts                          0                       # Number of store instructions
system.cpu.num_vec_alu_accesses                     0                       # Number of vector alu accesses
system.cpu.num_vec_insts                            0                       # number of vector instructions
system.cpu.num_vec_register_reads                   0                       # number of times the vector registers were read
system.cpu.num_vec_register_writes                  0                       # number of times the vector registers were written
system.cpu.op_class::No_OpClass                     0                       # Class of executed instruction
system.cpu.op_class::IntAlu                         0                       # Class of executed instruction
system.cpu.op_class::IntMult                        0                       # Class of executed instruction
system.cpu.op_class::IntDiv                         0                       # Class of executed instruction
system.cpu.op_class::FloatAdd                       0                       # Class of executed instruction
system.cpu.op_class::FloatCmp                       0                       # Class of executed instruction
system.cpu.op_class::FloatCvt                       0                       # Class of executed instruction
system.cpu.op_class::FloatMult                      0                       # Class of executed instruction
system.cpu.op_class::FloatMultAcc                   0                       # Class of executed instruction
system.cpu.op_class::FloatDiv                       0                       # Class of executed instruction
system.cpu.op_class::FloatMisc                      0                       # Class of executed instruction
system.cpu.op_class::FloatSqrt                      0                       # Class of executed instruction
system.cpu.op_class::SimdAdd                        0                       # Class of executed instruction
system.cpu.op_class::SimdAddAcc                     0                       # Class of executed instruction
system.cpu.op_class::SimdAlu                        0                       # Class of executed instruction
system.cpu.op_class::SimdCmp                        0                       # Class of executed instruction
system.cpu.op_class::SimdCvt                        0                       # Class of executed instruction
system.cpu.op_class::SimdMisc                       0                       # Class of executed instruction
system.cpu.op_class::SimdMult                       0                       # Class of executed instruction
system.cpu.op_class::SimdMultAcc                    0                       # Class of executed instruction
system.cpu.op_class::SimdShift                      0                       # Class of executed instruction
system.cpu.op_class::SimdShiftAcc                   0                       # Class of executed instruction
system.cpu.op_class::SimdDiv                        0                       # Class of executed instruction
system.cpu.op_class::SimdSqrt                       0                       # Class of executed instruction
system.cpu.op_class::SimdFloatAdd                   0                       # Class of executed instruction
system.cpu.op_class::SimdFloatAlu                   0                       # Class of executed instruction
system.cpu.op_class::SimdFloatCmp                   0                       # Class of executed instruction
system.cpu.op_class::SimdFloatCvt                   0                       # Class of executed instruction
system.cpu.op_class::SimdFloatDiv                   0                       # Class of executed instruction
system.cpu.op_class::SimdFloatMisc                  0                       # Class of executed instruction
system.cpu.op_class::SimdFloatMult                  0                       # Class of executed instruction
system.cpu.op_class::SimdFloatMultAcc               0                       # Class of executed instruction
system.cpu.op_class::SimdFloatSqrt                  0                       # Class of executed instruction
system.cpu.op_class::SimdReduceAdd                  0                       # Class of executed instruction
system.cpu.op_class::SimdReduceAlu                  0                       # Class of executed instruction
system.cpu.op_class::SimdReduceCmp                  0                       # Class of executed instruction
system.cpu.op_class::SimdFloatReduceAdd             0                       # Class of executed instruction
system.cpu.op_class::SimdFloatReduceCmp             0                       # Class of executed instruction
system.cpu.op_class::SimdAes                        0                       # Class of executed instruction
system.cpu.op_class::SimdAesMix                     0                       # Class of executed instruction
system.cpu.op_class::SimdSha1Hash                   0                       # Class of executed instruction
system.cpu.op_class::SimdSha1Hash2                  0                       # Class of executed instruction
system.cpu.op_class::SimdSha256Hash                 0                       # Class of executed instruction
system.cpu.op_class::SimdSha256Hash2                0                       # Class of executed instruction
system.cpu.op_class::SimdShaSigma2                  0                       # Class of executed instruction
system.cpu.op_class::SimdShaSigma3                  0                       # Class of executed instruction
system.cpu.op_class::SimdPredAlu                    0                       # Class of executed instruction
system.cpu.op_class::MemRead                        0                       # Class of executed instruction
system.cpu.op_class::MemWrite                       0                       # Class of executed instruction
system.cpu.op_class::FloatMemRead                   0                       # Class of executed instruction
system.cpu.op_class::FloatMemWrite                  0                       # Class of executed instruction
system.cpu.op_class::IprAccess                      0                       # Class of executed instruction
system.cpu.op_class::InstPrefetch                   0                       # Class of executed instruction
system.cpu.op_class::total                          0                       # Class of executed instruction
system.cpu.workload.numSyscalls                     3                       # Number of system calls
system.membus.snoop_filter.hit_multi_requests            0                       # Number of requests hitting in the snoop filter with multiple (>1) holders of the requested data.
system.membus.snoop_filter.hit_multi_snoops            0                       # Number of snoops hitting in the snoop filter with multiple (>1) holders of the requested data.
system.membus.snoop_filter.hit_single_requests       130594                       # Number of requests hitting in the snoop filter with a single holder of the requested data.
system.membus.snoop_filter.hit_single_snoops            0                       # Number of snoops hitting in the snoop filter with a single holder of the requested data.
system.membus.snoop_filter.tot_requests        261188                       # Total number of requests made to the snoop filter.
system.membus.snoop_filter.tot_snoops               0                       # Total number of snoops made to the snoop filter.
system.switch_cpus.branchPred.BTBCorrect            0                       # Number of correct BTB predictions (this stat may not work properly.
system.switch_cpus.branchPred.BTBHitPct      0.000000                       # BTB Hit Percentage
system.switch_cpus.branchPred.BTBHits               0                       # Number of BTB hits
system.switch_cpus.branchPred.BTBLookups    167822762                       # Number of BTB lookups
system.switch_cpus.branchPred.RASInCorrect         5418                       # Number of incorrect RAS predictions.
system.switch_cpus.branchPred.condIncorrect     21764855                       # Number of conditional branches incorrect
system.switch_cpus.branchPred.condPredicted    143216921                       # Number of conditional branches predicted
system.switch_cpus.branchPred.indirectHits     43894537                       # Number of indirect target hits.
system.switch_cpus.branchPred.indirectLookups    167822762                       # Number of indirect predictor lookups.
system.switch_cpus.branchPred.indirectMisses    123928225                       # Number of indirect misses.
system.switch_cpus.branchPred.lookups       191648706                       # Number of BP lookups
system.switch_cpus.branchPred.usedRAS        18025397                       # Number of times the RAS was used to get a target.
system.switch_cpus.branchPredindirectMispredicted     18536826                       # Number of mispredicted indirect branches.
system.switch_cpus.cc_regfile_reads         481125517                       # number of cc regfile reads
system.switch_cpus.cc_regfile_writes        445731883                       # number of cc regfile writes
system.switch_cpus.commit.amos                      0                       # Number of atomic instructions committed
system.switch_cpus.commit.branchMispredicts     21765000                       # The number of times a branch was mispredicted
system.switch_cpus.commit.branches           75086694                       # Number of branches committed
system.switch_cpus.commit.bw_lim_events      42345926                       # number cycles where commit BW limit reached
system.switch_cpus.commit.commitNonSpecStalls            3                       # The number of times commit has been forced to stall to communicate backwards
system.switch_cpus.commit.commitSquashedInsts    687049569                       # The number of squashed insts skipped by commit
system.switch_cpus.commit.committedInsts    500000001                       # Number of instructions committed
system.switch_cpus.commit.committedOps      839678819                       # Number of ops (including micro ops) committed
system.switch_cpus.commit.committed_per_cycle::samples    443031889                       # Number of insts commited each cycle
system.switch_cpus.commit.committed_per_cycle::mean     1.895301                       # Number of insts commited each cycle
system.switch_cpus.commit.committed_per_cycle::stdev     2.580599                       # Number of insts commited each cycle
system.switch_cpus.commit.committed_per_cycle::underflows            0      0.00%      0.00% # Number of insts commited each cycle
system.switch_cpus.commit.committed_per_cycle::0    202767242     45.77%     45.77% # Number of insts commited each cycle
system.switch_cpus.commit.committed_per_cycle::1     76472104     17.26%     63.03% # Number of insts commited each cycle
system.switch_cpus.commit.committed_per_cycle::2     39601083      8.94%     71.97% # Number of insts commited each cycle
system.switch_cpus.commit.committed_per_cycle::3     33384260      7.54%     79.50% # Number of insts commited each cycle
system.switch_cpus.commit.committed_per_cycle::4     20444540      4.61%     84.12% # Number of insts commited each cycle
system.switch_cpus.commit.committed_per_cycle::5     11473589      2.59%     86.71% # Number of insts commited each cycle
system.switch_cpus.commit.committed_per_cycle::6      9863762      2.23%     88.93% # Number of insts commited each cycle
system.switch_cpus.commit.committed_per_cycle::7      6679383      1.51%     90.44% # Number of insts commited each cycle
system.switch_cpus.commit.committed_per_cycle::8     42345926      9.56%    100.00% # Number of insts commited each cycle
system.switch_cpus.commit.committed_per_cycle::overflows            0      0.00%    100.00% # Number of insts commited each cycle
system.switch_cpus.commit.committed_per_cycle::min_value            0                       # Number of insts commited each cycle
system.switch_cpus.commit.committed_per_cycle::max_value            8                       # Number of insts commited each cycle
system.switch_cpus.commit.committed_per_cycle::total    443031889                       # Number of insts commited each cycle
system.switch_cpus.commit.fp_insts             818338                       # Number of committed floating point instructions.
system.switch_cpus.commit.function_calls     10052312                       # Number of function calls committed.
system.switch_cpus.commit.int_insts         836921134                       # Number of committed integer instructions.
system.switch_cpus.commit.loads             123874952                       # Number of loads committed
system.switch_cpus.commit.membars                   0                       # Number of memory barriers committed
system.switch_cpus.commit.op_class_0::No_OpClass      2112896      0.25%      0.25% # Class of committed instruction
system.switch_cpus.commit.op_class_0::IntAlu    650240730     77.44%     77.69% # Class of committed instruction
system.switch_cpus.commit.op_class_0::IntMult      6520113      0.78%     78.47% # Class of committed instruction
system.switch_cpus.commit.op_class_0::IntDiv      1503927      0.18%     78.65% # Class of committed instruction
system.switch_cpus.commit.op_class_0::FloatAdd           60      0.00%     78.65% # Class of committed instruction
system.switch_cpus.commit.op_class_0::FloatCmp            0      0.00%     78.65% # Class of committed instruction
system.switch_cpus.commit.op_class_0::FloatCvt            0      0.00%     78.65% # Class of committed instruction
system.switch_cpus.commit.op_class_0::FloatMult            0      0.00%     78.65% # Class of committed instruction
system.switch_cpus.commit.op_class_0::FloatMultAcc            0      0.00%     78.65% # Class of committed instruction
system.switch_cpus.commit.op_class_0::FloatDiv            0      0.00%     78.65% # Class of committed instruction
system.switch_cpus.commit.op_class_0::FloatMisc            0      0.00%     78.65% # Class of committed instruction
system.switch_cpus.commit.op_class_0::FloatSqrt            0      0.00%     78.65% # Class of committed instruction
system.switch_cpus.commit.op_class_0::SimdAdd            0      0.00%     78.65% # Class of committed instruction
system.switch_cpus.commit.op_class_0::SimdAddAcc            0      0.00%     78.65% # Class of committed instruction
system.switch_cpus.commit.op_class_0::SimdAlu       204480      0.02%     78.67% # Class of committed instruction
system.switch_cpus.commit.op_class_0::SimdCmp            0      0.00%     78.67% # Class of committed instruction
system.switch_cpus.commit.op_class_0::SimdCvt          292      0.00%     78.67% # Class of committed instruction
system.switch_cpus.commit.op_class_0::SimdMisc          577      0.00%     78.67% # Class of committed instruction
system.switch_cpus.commit.op_class_0::SimdMult            0      0.00%     78.67% # Class of committed instruction
system.switch_cpus.commit.op_class_0::SimdMultAcc            0      0.00%     78.67% # Class of committed instruction
system.switch_cpus.commit.op_class_0::SimdShift            0      0.00%     78.67% # Class of committed instruction
system.switch_cpus.commit.op_class_0::SimdShiftAcc            0      0.00%     78.67% # Class of committed instruction
system.switch_cpus.commit.op_class_0::SimdDiv            0      0.00%     78.67% # Class of committed instruction
system.switch_cpus.commit.op_class_0::SimdSqrt            0      0.00%     78.67% # Class of committed instruction
system.switch_cpus.commit.op_class_0::SimdFloatAdd            0      0.00%     78.67% # Class of committed instruction
system.switch_cpus.commit.op_class_0::SimdFloatAlu            0      0.00%     78.67% # Class of committed instruction
system.switch_cpus.commit.op_class_0::SimdFloatCmp            0      0.00%     78.67% # Class of committed instruction
system.switch_cpus.commit.op_class_0::SimdFloatCvt            0      0.00%     78.67% # Class of committed instruction
system.switch_cpus.commit.op_class_0::SimdFloatDiv            0      0.00%     78.67% # Class of committed instruction
system.switch_cpus.commit.op_class_0::SimdFloatMisc            0      0.00%     78.67% # Class of committed instruction
system.switch_cpus.commit.op_class_0::SimdFloatMult            0      0.00%     78.67% # Class of committed instruction
system.switch_cpus.commit.op_class_0::SimdFloatMultAcc            0      0.00%     78.67% # Class of committed instruction
system.switch_cpus.commit.op_class_0::SimdFloatSqrt            0      0.00%     78.67% # Class of committed instruction
system.switch_cpus.commit.op_class_0::SimdReduceAdd            0      0.00%     78.67% # Class of committed instruction
system.switch_cpus.commit.op_class_0::SimdReduceAlu            0      0.00%     78.67% # Class of committed instruction
system.switch_cpus.commit.op_class_0::SimdReduceCmp            0      0.00%     78.67% # Class of committed instruction
system.switch_cpus.commit.op_class_0::SimdFloatReduceAdd            0      0.00%     78.67% # Class of committed instruction
system.switch_cpus.commit.op_class_0::SimdFloatReduceCmp            0      0.00%     78.67% # Class of committed instruction
system.switch_cpus.commit.op_class_0::SimdAes            0      0.00%     78.67% # Class of committed instruction
system.switch_cpus.commit.op_class_0::SimdAesMix            0      0.00%     78.67% # Class of committed instruction
system.switch_cpus.commit.op_class_0::SimdSha1Hash            0      0.00%     78.67% # Class of committed instruction
system.switch_cpus.commit.op_class_0::SimdSha1Hash2            0      0.00%     78.67% # Class of committed instruction
system.switch_cpus.commit.op_class_0::SimdSha256Hash            0      0.00%     78.67% # Class of committed instruction
system.switch_cpus.commit.op_class_0::SimdSha256Hash2            0      0.00%     78.67% # Class of committed instruction
system.switch_cpus.commit.op_class_0::SimdShaSigma2            0      0.00%     78.67% # Class of committed instruction
system.switch_cpus.commit.op_class_0::SimdShaSigma3            0      0.00%     78.67% # Class of committed instruction
system.switch_cpus.commit.op_class_0::SimdPredAlu            0      0.00%     78.67% # Class of committed instruction
system.switch_cpus.commit.op_class_0::MemRead    123874733     14.75%     93.42% # Class of committed instruction
system.switch_cpus.commit.op_class_0::MemWrite     54608255      6.50%     99.93% # Class of committed instruction
system.switch_cpus.commit.op_class_0::FloatMemRead          219      0.00%     99.93% # Class of committed instruction
system.switch_cpus.commit.op_class_0::FloatMemWrite       612536      0.07%    100.00% # Class of committed instruction
system.switch_cpus.commit.op_class_0::IprAccess            0      0.00%    100.00% # Class of committed instruction
system.switch_cpus.commit.op_class_0::InstPrefetch            0      0.00%    100.00% # Class of committed instruction
system.switch_cpus.commit.op_class_0::total    839678818                       # Class of committed instruction
system.switch_cpus.commit.refs              179095743                       # Number of memory references committed
system.switch_cpus.commit.swp_count                 0                       # Number of s/w prefetches committed
system.switch_cpus.commit.vec_insts                 0                       # Number of committed Vector instructions.
system.switch_cpus.committedInsts           500000000                       # Number of Instructions Simulated
system.switch_cpus.committedOps             839678818                       # Number of Ops (including micro ops) Simulated
system.switch_cpus.cpi                       1.101219                       # CPI: Cycles Per Instruction
system.switch_cpus.cpi_total                 1.101219                       # CPI: Total CPI of All Threads
system.switch_cpus.decode.BlockedCycles     114403547                       # Number of cycles decode is blocked
system.switch_cpus.decode.DecodedInsts     1869109220                       # Number of instructions handled by decode
system.switch_cpus.decode.IdleCycles        139051697                       # Number of cycles decode is idle
system.switch_cpus.decode.RunCycles         248529612                       # Number of cycles decode is running
system.switch_cpus.decode.SquashCycles       21964488                       # Number of cycles decode is squashing
system.switch_cpus.decode.UnblockCycles      22021907                       # Number of cycles decode is unblocking
system.switch_cpus.dtb.rdAccesses           185145993                       # TLB accesses on read requests
system.switch_cpus.dtb.rdMisses                297650                       # TLB misses on read requests
system.switch_cpus.dtb.wrAccesses            70882984                       # TLB accesses on write requests
system.switch_cpus.dtb.wrMisses                 28291                       # TLB misses on write requests
system.switch_cpus.fetch.Branches           191648706                       # Number of branches that fetch encountered
system.switch_cpus.fetch.CacheLines         136091453                       # Number of cache lines fetched
system.switch_cpus.fetch.Cycles             353061872                       # Number of cycles fetch has run and was not squashing or blocked
system.switch_cpus.fetch.IcacheSquashes       5761006                       # Number of outstanding Icache misses that were squashed
system.switch_cpus.fetch.IcacheWaitRetryStallCycles      8376192                       # Number of stall cycles due to full MSHR
system.switch_cpus.fetch.Insts             1185251020                       # Number of instructions fetch has processed
system.switch_cpus.fetch.MiscStallCycles      1335192                       # Number of cycles fetch has spent waiting on interrupts, or bad addresses, or out of MSHRs
system.switch_cpus.fetch.PendingTrapStallCycles         1288                       # Number of stall cycles due to pending traps
system.switch_cpus.fetch.SquashCycles        43928976                       # Number of cycles fetch has spent squashing
system.switch_cpus.fetch.branchRate          0.348067                       # Number of branch fetches per cycle
system.switch_cpus.fetch.icacheStallCycles    161232226                       # Number of cycles fetch is stalled on an Icache miss
system.switch_cpus.fetch.predictedBranches     61919934                       # Number of branches that fetch has predicted taken
system.switch_cpus.fetch.rate                2.152617                       # Number of inst fetches per cycle
system.switch_cpus.fetch.rateDist::samples    545971258                       # Number of instructions fetched each cycle (Total)
system.switch_cpus.fetch.rateDist::mean      3.704581                       # Number of instructions fetched each cycle (Total)
system.switch_cpus.fetch.rateDist::stdev     3.619957                       # Number of instructions fetched each cycle (Total)
system.switch_cpus.fetch.rateDist::underflows            0      0.00%      0.00% # Number of instructions fetched each cycle (Total)
system.switch_cpus.fetch.rateDist::0        234312017     42.92%     42.92% # Number of instructions fetched each cycle (Total)
system.switch_cpus.fetch.rateDist::1         15451687      2.83%     45.75% # Number of instructions fetched each cycle (Total)
system.switch_cpus.fetch.rateDist::2         12013072      2.20%     47.95% # Number of instructions fetched each cycle (Total)
system.switch_cpus.fetch.rateDist::3         17903331      3.28%     51.23% # Number of instructions fetched each cycle (Total)
system.switch_cpus.fetch.rateDist::4         15112993      2.77%     53.99% # Number of instructions fetched each cycle (Total)
system.switch_cpus.fetch.rateDist::5         28952801      5.30%     59.30% # Number of instructions fetched each cycle (Total)
system.switch_cpus.fetch.rateDist::6         19406813      3.55%     62.85% # Number of instructions fetched each cycle (Total)
system.switch_cpus.fetch.rateDist::7         14798060      2.71%     65.56% # Number of instructions fetched each cycle (Total)
system.switch_cpus.fetch.rateDist::8        188020484     34.44%    100.00% # Number of instructions fetched each cycle (Total)
system.switch_cpus.fetch.rateDist::overflows            0      0.00%    100.00% # Number of instructions fetched each cycle (Total)
system.switch_cpus.fetch.rateDist::min_value            0                       # Number of instructions fetched each cycle (Total)
system.switch_cpus.fetch.rateDist::max_value            8                       # Number of instructions fetched each cycle (Total)
system.switch_cpus.fetch.rateDist::total    545971258                       # Number of instructions fetched each cycle (Total)
system.switch_cpus.fp_regfile_reads           1300489                       # number of floating regfile reads
system.switch_cpus.fp_regfile_writes           300857                       # number of floating regfile writes
system.switch_cpus.idleCycles                 4638000                       # Total number of cycles that the CPU has spent unscheduled due to idling
system.switch_cpus.iew.branchMispredicts     29719271                       # Number of branch mispredicts detected at execute
system.switch_cpus.iew.exec_branches        102828728                       # Number of branches executed
system.switch_cpus.iew.exec_nop                     0                       # number of nop insts executed
system.switch_cpus.iew.exec_rate             2.214602                       # Inst execution rate
system.switch_cpus.iew.exec_refs            260707165                       # number of memory reference insts executed
system.switch_cpus.iew.exec_stores           70882965                       # Number of stores executed
system.switch_cpus.iew.exec_swp                     0                       # number of swp insts executed
system.switch_cpus.iew.iewBlockCycles        90940181                       # Number of cycles IEW is blocking
system.switch_cpus.iew.iewDispLoadInsts     228698202                       # Number of dispatched load instructions
system.switch_cpus.iew.iewDispNonSpecInsts           18                       # Number of dispatched non-speculative instructions
system.switch_cpus.iew.iewDispSquashedInsts      2883558                       # Number of squashed instructions skipped by dispatch
system.switch_cpus.iew.iewDispStoreInsts    100328822                       # Number of dispatched store instructions
system.switch_cpus.iew.iewDispatchedInsts   1526721588                       # Number of instructions dispatched to IQ
system.switch_cpus.iew.iewExecLoadInsts     189824200                       # Number of load instructions executed
system.switch_cpus.iew.iewExecSquashedInsts     55647802                       # Number of squashed instructions skipped in execute
system.switch_cpus.iew.iewExecutedInsts    1219380385                       # Number of executed instructions
system.switch_cpus.iew.iewIQFullEvents         404815                       # Number of times the IQ has become full, causing a stall
system.switch_cpus.iew.iewIdleCycles                0                       # Number of cycles IEW is idle
system.switch_cpus.iew.iewLSQFullEvents          8132                       # Number of times the LSQ has become full, causing a stall
system.switch_cpus.iew.iewSquashCycles       21964488                       # Number of cycles IEW is squashing
system.switch_cpus.iew.iewUnblockCycles        557322                       # Number of cycles IEW is unblocking
system.switch_cpus.iew.lsq.thread0.blockedLoads            0                       # Number of blocked loads due to partial load-store forwarding
system.switch_cpus.iew.lsq.thread0.cacheBlocked       817740                       # Number of times an access to memory failed due to the cache being blocked
system.switch_cpus.iew.lsq.thread0.forwLoads     18348642                       # Number of loads that had data forwarded from stores
system.switch_cpus.iew.lsq.thread0.ignoredResponses       326147                       # Number of memory responses ignored because the instruction is squashed
system.switch_cpus.iew.lsq.thread0.invAddrLoads            0                       # Number of loads ignored due to an invalid address
system.switch_cpus.iew.lsq.thread0.invAddrSwpfs            0                       # Number of software prefetches ignored due to an invalid address
system.switch_cpus.iew.lsq.thread0.memOrderViolation       236685                       # Number of memory ordering violations
system.switch_cpus.iew.lsq.thread0.rescheduledLoads        56683                       # Number of loads that were rescheduled
system.switch_cpus.iew.lsq.thread0.squashedLoads    104823241                       # Number of loads squashed
system.switch_cpus.iew.lsq.thread0.squashedStores     45108022                       # Number of stores squashed
system.switch_cpus.iew.memOrderViolationEvents       236685                       # Number of memory order violations
system.switch_cpus.iew.predictedNotTakenIncorrect     26594584                       # Number of branches that were predicted not taken incorrectly
system.switch_cpus.iew.predictedTakenIncorrect      3124687                       # Number of branches that were predicted taken incorrectly
system.switch_cpus.iew.wb_consumers        1430174094                       # num instructions consuming a value
system.switch_cpus.iew.wb_count            1189809517                       # cumulative count of insts written-back
system.switch_cpus.iew.wb_fanout             0.623671                       # average fanout of values written-back
system.switch_cpus.iew.wb_producers         891958491                       # num instructions producing a value
system.switch_cpus.iew.wb_rate               2.160896                       # insts written-back per cycle
system.switch_cpus.iew.wb_sent             1199311428                       # cumulative count of insts sent to commit
system.switch_cpus.int_regfile_reads       1818468763                       # number of integer regfile reads
system.switch_cpus.int_regfile_writes      1023493655                       # number of integer regfile writes
system.switch_cpus.ipc                       0.908085                       # IPC: Instructions Per Cycle
system.switch_cpus.ipc_total                 0.908085                       # IPC: Total IPC of All Threads
system.switch_cpus.iq.FU_type_0::No_OpClass     11632614      0.91%      0.91% # Type of FU issued
system.switch_cpus.iq.FU_type_0::IntAlu     976114109     76.56%     77.47% # Type of FU issued
system.switch_cpus.iq.FU_type_0::IntMult      6913353      0.54%     78.01% # Type of FU issued
system.switch_cpus.iq.FU_type_0::IntDiv       1543748      0.12%     78.13% # Type of FU issued
system.switch_cpus.iq.FU_type_0::FloatAdd           62      0.00%     78.13% # Type of FU issued
system.switch_cpus.iq.FU_type_0::FloatCmp            0      0.00%     78.13% # Type of FU issued
system.switch_cpus.iq.FU_type_0::FloatCvt            0      0.00%     78.13% # Type of FU issued
system.switch_cpus.iq.FU_type_0::FloatMult            0      0.00%     78.13% # Type of FU issued
system.switch_cpus.iq.FU_type_0::FloatMultAcc            0      0.00%     78.13% # Type of FU issued
system.switch_cpus.iq.FU_type_0::FloatDiv            0      0.00%     78.13% # Type of FU issued
system.switch_cpus.iq.FU_type_0::FloatMisc            0      0.00%     78.13% # Type of FU issued
system.switch_cpus.iq.FU_type_0::FloatSqrt            0      0.00%     78.13% # Type of FU issued
system.switch_cpus.iq.FU_type_0::SimdAdd            0      0.00%     78.13% # Type of FU issued
system.switch_cpus.iq.FU_type_0::SimdAddAcc            0      0.00%     78.13% # Type of FU issued
system.switch_cpus.iq.FU_type_0::SimdAlu       305478      0.02%     78.16% # Type of FU issued
system.switch_cpus.iq.FU_type_0::SimdCmp            0      0.00%     78.16% # Type of FU issued
system.switch_cpus.iq.FU_type_0::SimdCvt          292      0.00%     78.16% # Type of FU issued
system.switch_cpus.iq.FU_type_0::SimdMisc          584      0.00%     78.16% # Type of FU issued
system.switch_cpus.iq.FU_type_0::SimdMult            0      0.00%     78.16% # Type of FU issued
system.switch_cpus.iq.FU_type_0::SimdMultAcc            0      0.00%     78.16% # Type of FU issued
system.switch_cpus.iq.FU_type_0::SimdShift            0      0.00%     78.16% # Type of FU issued
system.switch_cpus.iq.FU_type_0::SimdShiftAcc            0      0.00%     78.16% # Type of FU issued
system.switch_cpus.iq.FU_type_0::SimdDiv            0      0.00%     78.16% # Type of FU issued
system.switch_cpus.iq.FU_type_0::SimdSqrt            0      0.00%     78.16% # Type of FU issued
system.switch_cpus.iq.FU_type_0::SimdFloatAdd            0      0.00%     78.16% # Type of FU issued
system.switch_cpus.iq.FU_type_0::SimdFloatAlu            0      0.00%     78.16% # Type of FU issued
system.switch_cpus.iq.FU_type_0::SimdFloatCmp            0      0.00%     78.16% # Type of FU issued
system.switch_cpus.iq.FU_type_0::SimdFloatCvt            1      0.00%     78.16% # Type of FU issued
system.switch_cpus.iq.FU_type_0::SimdFloatDiv            0      0.00%     78.16% # Type of FU issued
system.switch_cpus.iq.FU_type_0::SimdFloatMisc            0      0.00%     78.16% # Type of FU issued
system.switch_cpus.iq.FU_type_0::SimdFloatMult            0      0.00%     78.16% # Type of FU issued
system.switch_cpus.iq.FU_type_0::SimdFloatMultAcc            0      0.00%     78.16% # Type of FU issued
system.switch_cpus.iq.FU_type_0::SimdFloatSqrt            0      0.00%     78.16% # Type of FU issued
system.switch_cpus.iq.FU_type_0::SimdReduceAdd            0      0.00%     78.16% # Type of FU issued
system.switch_cpus.iq.FU_type_0::SimdReduceAlu            0      0.00%     78.16% # Type of FU issued
system.switch_cpus.iq.FU_type_0::SimdReduceCmp            0      0.00%     78.16% # Type of FU issued
system.switch_cpus.iq.FU_type_0::SimdFloatReduceAdd            0      0.00%     78.16% # Type of FU issued
system.switch_cpus.iq.FU_type_0::SimdFloatReduceCmp            0      0.00%     78.16% # Type of FU issued
system.switch_cpus.iq.FU_type_0::SimdAes            0      0.00%     78.16% # Type of FU issued
system.switch_cpus.iq.FU_type_0::SimdAesMix            0      0.00%     78.16% # Type of FU issued
system.switch_cpus.iq.FU_type_0::SimdSha1Hash            0      0.00%     78.16% # Type of FU issued
system.switch_cpus.iq.FU_type_0::SimdSha1Hash2            0      0.00%     78.16% # Type of FU issued
system.switch_cpus.iq.FU_type_0::SimdSha256Hash            0      0.00%     78.16% # Type of FU issued
system.switch_cpus.iq.FU_type_0::SimdSha256Hash2            0      0.00%     78.16% # Type of FU issued
system.switch_cpus.iq.FU_type_0::SimdShaSigma2            0      0.00%     78.16% # Type of FU issued
system.switch_cpus.iq.FU_type_0::SimdShaSigma3            0      0.00%     78.16% # Type of FU issued
system.switch_cpus.iq.FU_type_0::SimdPredAlu            0      0.00%     78.16% # Type of FU issued
system.switch_cpus.iq.FU_type_0::MemRead    202190164     15.86%     94.01% # Type of FU issued
system.switch_cpus.iq.FU_type_0::MemWrite     75606946      5.93%     99.94% # Type of FU issued
system.switch_cpus.iq.FU_type_0::FloatMemRead          310      0.00%     99.94% # Type of FU issued
system.switch_cpus.iq.FU_type_0::FloatMemWrite       720527      0.06%    100.00% # Type of FU issued
system.switch_cpus.iq.FU_type_0::IprAccess            0      0.00%    100.00% # Type of FU issued
system.switch_cpus.iq.FU_type_0::InstPrefetch            0      0.00%    100.00% # Type of FU issued
system.switch_cpus.iq.FU_type_0::total     1275028188                       # Type of FU issued
system.switch_cpus.iq.fp_alu_accesses         1136987                       # Number of floating point alu accesses
system.switch_cpus.iq.fp_inst_queue_reads      2165047                       # Number of floating instruction queue reads
system.switch_cpus.iq.fp_inst_queue_wakeup_accesses       999939                       # Number of floating instruction queue wakeup accesses
system.switch_cpus.iq.fp_inst_queue_writes      1261424                       # Number of floating instruction queue writes
system.switch_cpus.iq.fu_busy_cnt            19816836                       # FU busy when requested
system.switch_cpus.iq.fu_busy_rate           0.015542                       # FU busy rate (busy events/executed inst)
system.switch_cpus.iq.fu_full::No_OpClass            0      0.00%      0.00% # attempts to use FU when none available
system.switch_cpus.iq.fu_full::IntAlu        15660193     79.02%     79.02% # attempts to use FU when none available
system.switch_cpus.iq.fu_full::IntMult              0      0.00%     79.02% # attempts to use FU when none available
system.switch_cpus.iq.fu_full::IntDiv               0      0.00%     79.02% # attempts to use FU when none available
system.switch_cpus.iq.fu_full::FloatAdd             0      0.00%     79.02% # attempts to use FU when none available
system.switch_cpus.iq.fu_full::FloatCmp             0      0.00%     79.02% # attempts to use FU when none available
system.switch_cpus.iq.fu_full::FloatCvt             0      0.00%     79.02% # attempts to use FU when none available
system.switch_cpus.iq.fu_full::FloatMult            0      0.00%     79.02% # attempts to use FU when none available
system.switch_cpus.iq.fu_full::FloatMultAcc            0      0.00%     79.02% # attempts to use FU when none available
system.switch_cpus.iq.fu_full::FloatDiv             0      0.00%     79.02% # attempts to use FU when none available
system.switch_cpus.iq.fu_full::FloatMisc            0      0.00%     79.02% # attempts to use FU when none available
system.switch_cpus.iq.fu_full::FloatSqrt            0      0.00%     79.02% # attempts to use FU when none available
system.switch_cpus.iq.fu_full::SimdAdd              0      0.00%     79.02% # attempts to use FU when none available
system.switch_cpus.iq.fu_full::SimdAddAcc            0      0.00%     79.02% # attempts to use FU when none available
system.switch_cpus.iq.fu_full::SimdAlu             11      0.00%     79.02% # attempts to use FU when none available
system.switch_cpus.iq.fu_full::SimdCmp              0      0.00%     79.02% # attempts to use FU when none available
system.switch_cpus.iq.fu_full::SimdCvt              0      0.00%     79.02% # attempts to use FU when none available
system.switch_cpus.iq.fu_full::SimdMisc             7      0.00%     79.02% # attempts to use FU when none available
system.switch_cpus.iq.fu_full::SimdMult             0      0.00%     79.02% # attempts to use FU when none available
system.switch_cpus.iq.fu_full::SimdMultAcc            0      0.00%     79.02% # attempts to use FU when none available
system.switch_cpus.iq.fu_full::SimdShift            0      0.00%     79.02% # attempts to use FU when none available
system.switch_cpus.iq.fu_full::SimdShiftAcc            0      0.00%     79.02% # attempts to use FU when none available
system.switch_cpus.iq.fu_full::SimdDiv              0      0.00%     79.02% # attempts to use FU when none available
system.switch_cpus.iq.fu_full::SimdSqrt             0      0.00%     79.02% # attempts to use FU when none available
system.switch_cpus.iq.fu_full::SimdFloatAdd            0      0.00%     79.02% # attempts to use FU when none available
system.switch_cpus.iq.fu_full::SimdFloatAlu            0      0.00%     79.02% # attempts to use FU when none available
system.switch_cpus.iq.fu_full::SimdFloatCmp            0      0.00%     79.02% # attempts to use FU when none available
system.switch_cpus.iq.fu_full::SimdFloatCvt            0      0.00%     79.02% # attempts to use FU when none available
system.switch_cpus.iq.fu_full::SimdFloatDiv            0      0.00%     79.02% # attempts to use FU when none available
system.switch_cpus.iq.fu_full::SimdFloatMisc            0      0.00%     79.02% # attempts to use FU when none available
system.switch_cpus.iq.fu_full::SimdFloatMult            0      0.00%     79.02% # attempts to use FU when none available
system.switch_cpus.iq.fu_full::SimdFloatMultAcc            0      0.00%     79.02% # attempts to use FU when none available
system.switch_cpus.iq.fu_full::SimdFloatSqrt            0      0.00%     79.02% # attempts to use FU when none available
system.switch_cpus.iq.fu_full::SimdReduceAdd            0      0.00%     79.02% # attempts to use FU when none available
system.switch_cpus.iq.fu_full::SimdReduceAlu            0      0.00%     79.02% # attempts to use FU when none available
system.switch_cpus.iq.fu_full::SimdReduceCmp            0      0.00%     79.02% # attempts to use FU when none available
system.switch_cpus.iq.fu_full::SimdFloatReduceAdd            0      0.00%     79.02% # attempts to use FU when none available
system.switch_cpus.iq.fu_full::SimdFloatReduceCmp            0      0.00%     79.02% # attempts to use FU when none available
system.switch_cpus.iq.fu_full::SimdAes              0      0.00%     79.02% # attempts to use FU when none available
system.switch_cpus.iq.fu_full::SimdAesMix            0      0.00%     79.02% # attempts to use FU when none available
system.switch_cpus.iq.fu_full::SimdSha1Hash            0      0.00%     79.02% # attempts to use FU when none available
system.switch_cpus.iq.fu_full::SimdSha1Hash2            0      0.00%     79.02% # attempts to use FU when none available
system.switch_cpus.iq.fu_full::SimdSha256Hash            0      0.00%     79.02% # attempts to use FU when none available
system.switch_cpus.iq.fu_full::SimdSha256Hash2            0      0.00%     79.02% # attempts to use FU when none available
system.switch_cpus.iq.fu_full::SimdShaSigma2            0      0.00%     79.02% # attempts to use FU when none available
system.switch_cpus.iq.fu_full::SimdShaSigma3            0      0.00%     79.02% # attempts to use FU when none available
system.switch_cpus.iq.fu_full::SimdPredAlu            0      0.00%     79.02% # attempts to use FU when none available
system.switch_cpus.iq.fu_full::MemRead        3371227     17.01%     96.04% # attempts to use FU when none available
system.switch_cpus.iq.fu_full::MemWrite        675859      3.41%     99.45% # attempts to use FU when none available
system.switch_cpus.iq.fu_full::FloatMemRead            9      0.00%     99.45% # attempts to use FU when none available
system.switch_cpus.iq.fu_full::FloatMemWrite       109530      0.55%    100.00% # attempts to use FU when none available
system.switch_cpus.iq.fu_full::IprAccess            0      0.00%    100.00% # attempts to use FU when none available
system.switch_cpus.iq.fu_full::InstPrefetch            0      0.00%    100.00% # attempts to use FU when none available
system.switch_cpus.iq.int_alu_accesses     1282075423                       # Number of integer alu accesses
system.switch_cpus.iq.int_inst_queue_reads   3121732688                       # Number of integer instruction queue reads
system.switch_cpus.iq.int_inst_queue_wakeup_accesses   1188809578                       # Number of integer instruction queue wakeup accesses
system.switch_cpus.iq.int_inst_queue_writes   2212729049                       # Number of integer instruction queue writes
system.switch_cpus.iq.iqInstsAdded         1526721550                       # Number of instructions added to the IQ (excludes non-spec)
system.switch_cpus.iq.iqInstsIssued        1275028188                       # Number of instructions issued
system.switch_cpus.iq.iqNonSpecInstsAdded           38                       # Number of non-speculative instructions added to the IQ
system.switch_cpus.iq.iqSquashedInstsExamined    687042687                       # Number of squashed instructions iterated over during squash; mainly for profiling
system.switch_cpus.iq.iqSquashedInstsIssued      8053266                       # Number of squashed instructions issued
system.switch_cpus.iq.iqSquashedNonSpecRemoved           35                       # Number of squashed non-spec instructions that were removed
system.switch_cpus.iq.iqSquashedOperandsExamined   1010555069                       # Number of squashed operands that are examined and possibly removed from graph
system.switch_cpus.iq.issued_per_cycle::samples    545971258                       # Number of insts issued each cycle
system.switch_cpus.iq.issued_per_cycle::mean     2.335339                       # Number of insts issued each cycle
system.switch_cpus.iq.issued_per_cycle::stdev     2.486235                       # Number of insts issued each cycle
system.switch_cpus.iq.issued_per_cycle::underflows            0      0.00%      0.00% # Number of insts issued each cycle
system.switch_cpus.iq.issued_per_cycle::0    214402584     39.27%     39.27% # Number of insts issued each cycle
system.switch_cpus.iq.issued_per_cycle::1     57538500     10.54%     49.81% # Number of insts issued each cycle
system.switch_cpus.iq.issued_per_cycle::2     50153701      9.19%     58.99% # Number of insts issued each cycle
system.switch_cpus.iq.issued_per_cycle::3     47695180      8.74%     67.73% # Number of insts issued each cycle
system.switch_cpus.iq.issued_per_cycle::4     46802380      8.57%     76.30% # Number of insts issued each cycle
system.switch_cpus.iq.issued_per_cycle::5     45396538      8.31%     84.62% # Number of insts issued each cycle
system.switch_cpus.iq.issued_per_cycle::6     42877655      7.85%     92.47% # Number of insts issued each cycle
system.switch_cpus.iq.issued_per_cycle::7     26199154      4.80%     97.27% # Number of insts issued each cycle
system.switch_cpus.iq.issued_per_cycle::8     14905566      2.73%    100.00% # Number of insts issued each cycle
system.switch_cpus.iq.issued_per_cycle::overflows            0      0.00%    100.00% # Number of insts issued each cycle
system.switch_cpus.iq.issued_per_cycle::min_value            0                       # Number of insts issued each cycle
system.switch_cpus.iq.issued_per_cycle::max_value            8                       # Number of insts issued each cycle
system.switch_cpus.iq.issued_per_cycle::total    545971258                       # Number of insts issued each cycle
system.switch_cpus.iq.rate                   2.315668                       # Inst issue rate
system.switch_cpus.iq.vec_alu_accesses              0                       # Number of vector alu accesses
system.switch_cpus.iq.vec_inst_queue_reads            0                       # Number of vector instruction queue reads
system.switch_cpus.iq.vec_inst_queue_wakeup_accesses            0                       # Number of vector instruction queue wakeup accesses
system.switch_cpus.iq.vec_inst_queue_writes            0                       # Number of vector instruction queue writes
system.switch_cpus.itb.rdAccesses                   0                       # TLB accesses on read requests
system.switch_cpus.itb.rdMisses                     0                       # TLB misses on read requests
system.switch_cpus.itb.wrAccesses           136091798                       # TLB accesses on write requests
system.switch_cpus.itb.wrMisses                   396                       # TLB misses on write requests
system.switch_cpus.memDep0.conflictingLoads     18836528                       # Number of conflicting loads.
system.switch_cpus.memDep0.conflictingStores     10565428                       # Number of conflicting stores.
system.switch_cpus.memDep0.insertedLoads    228698202                       # Number of loads inserted to the mem dependence unit.
system.switch_cpus.memDep0.insertedStores    100328822                       # Number of stores inserted to the mem dependence unit.
system.switch_cpus.misc_regfile_reads       509336079                       # number of misc regfile reads
system.switch_cpus.numCycles                550609258                       # number of cpu cycles simulated
system.switch_cpus.numWorkItemsCompleted            0                       # number of work items this cpu completed
system.switch_cpus.numWorkItemsStarted              0                       # number of work items this cpu started
system.switch_cpus.rename.BlockCycles       103157214                       # Number of cycles rename is blocking
system.switch_cpus.rename.CommittedMaps    1077491149                       # Number of HB maps that are committed
system.switch_cpus.rename.IQFullEvents       10410059                       # Number of times rename has blocked due to IQ full
system.switch_cpus.rename.IdleCycles        156748175                       # Number of cycles rename is idle
system.switch_cpus.rename.LQFullEvents         158774                       # Number of times rename has blocked due to LQ full
system.switch_cpus.rename.ROBFullEvents        344292                       # Number of times rename has blocked due to ROB full
system.switch_cpus.rename.RenameLookups    4319826868                       # Number of register rename lookups that rename has made
system.switch_cpus.rename.RenamedInsts     1758091284                       # Number of instructions processed by rename
system.switch_cpus.rename.RenamedOperands   2184747366                       # Number of destination operands rename has renamed
system.switch_cpus.rename.RunCycles         250964586                       # Number of cycles rename is running
system.switch_cpus.rename.SQFullEvents          47767                       # Number of times rename has blocked due to SQ full
system.switch_cpus.rename.SquashCycles       21964488                       # Number of cycles rename is squashing
system.switch_cpus.rename.UnblockCycles      13136679                       # Number of cycles rename is unblocking
system.switch_cpus.rename.UndoneMaps       1107256105                       # Number of HB maps that are undone due to squashing
system.switch_cpus.rename.fp_rename_lookups      1463177                       # Number of floating rename lookups
system.switch_cpus.rename.int_rename_lookups   2768527799                       # Number of integer rename lookups
system.switch_cpus.rename.serializeStallCycles          110                       # count of cycles rename stalled for serializing inst
system.switch_cpus.rename.serializingInsts            7                       # count of serializing insts renamed
system.switch_cpus.rename.skidInsts          37876035                       # count of insts added to the skid buffer
system.switch_cpus.rename.tempSerializingInsts            8                       # count of temporary serializing insts renamed
system.switch_cpus.rob.rob_reads           1927414351                       # The number of ROB reads
system.switch_cpus.rob.rob_writes          3157640383                       # The number of ROB writes
system.switch_cpus.timesIdled                  625453                       # Number of times that the entire CPU went into an idle state and unscheduled itself
system.tol2bus.snoop_filter.hit_multi_requests         4612                       # Number of requests hitting in the snoop filter with multiple (>1) holders of the requested data.
system.tol2bus.snoop_filter.hit_multi_snoops            0                       # Number of snoops hitting in the snoop filter with multiple (>1) holders of the requested data.
system.tol2bus.snoop_filter.hit_single_requests      1865914                       # Number of requests hitting in the snoop filter with a single holder of the requested data.
system.tol2bus.snoop_filter.hit_single_snoops         1062                       # Number of snoops hitting in the snoop filter with a single holder of the requested data.
system.tol2bus.snoop_filter.tot_requests      3729085                       # Total number of requests made to the snoop filter.
system.tol2bus.snoop_filter.tot_snoops           1062                       # Total number of snoops made to the snoop filter.
system.membus.pwrStateResidencyTicks::UNDEFINED 1317709737500                       # Cumulative time (in ticks) in various power states
system.membus.trans_dist::ReadResp             128091                       # Transaction distribution
system.membus.trans_dist::WritebackDirty        83696                       # Transaction distribution
system.membus.trans_dist::CleanEvict            46898                       # Transaction distribution
system.membus.trans_dist::ReadExReq              2503                       # Transaction distribution
system.membus.trans_dist::ReadExResp             2503                       # Transaction distribution
system.membus.trans_dist::ReadSharedReq        128091                       # Transaction distribution
system.membus.pkt_count_system.l2.mem_side::system.mem_ctrls.port       391782                       # Packet count per connected master and slave (bytes)
system.membus.pkt_count_system.l2.mem_side::total       391782                       # Packet count per connected master and slave (bytes)
system.membus.pkt_count::total                 391782                       # Packet count per connected master and slave (bytes)
system.membus.pkt_size_system.l2.mem_side::system.mem_ctrls.port     13714560                       # Cumulative packet size per connected master and slave (bytes)
system.membus.pkt_size_system.l2.mem_side::total     13714560                       # Cumulative packet size per connected master and slave (bytes)
system.membus.pkt_size::total                13714560                       # Cumulative packet size per connected master and slave (bytes)
system.membus.snoops                                0                       # Total snoops (count)
system.membus.snoopTraffic                          0                       # Total snoop traffic (bytes)
system.membus.snoop_fanout::samples            130594                       # Request fanout histogram
system.membus.snoop_fanout::mean                    0                       # Request fanout histogram
system.membus.snoop_fanout::stdev                   0                       # Request fanout histogram
system.membus.snoop_fanout::underflows              0      0.00%      0.00% # Request fanout histogram
system.membus.snoop_fanout::0                  130594    100.00%    100.00% # Request fanout histogram
system.membus.snoop_fanout::1                       0      0.00%    100.00% # Request fanout histogram
system.membus.snoop_fanout::overflows               0      0.00%    100.00% # Request fanout histogram
system.membus.snoop_fanout::min_value               0                       # Request fanout histogram
system.membus.snoop_fanout::max_value               0                       # Request fanout histogram
system.membus.snoop_fanout::total              130594                       # Request fanout histogram
system.membus.reqLayer2.occupancy           631039118                       # Layer occupancy (ticks)
system.membus.reqLayer2.utilization               0.2                       # Layer utilization (%)
system.membus.respLayer1.occupancy          708388492                       # Layer occupancy (ticks)
system.membus.respLayer1.utilization              0.3                       # Layer utilization (%)
system.switch_cpus.pwrStateResidencyTicks::OFF 1317709737500                       # Cumulative time (in ticks) in various power states
system.switch_cpus.dtb.walker.pwrStateResidencyTicks::UNDEFINED 1317709737500                       # Cumulative time (in ticks) in various power states
system.switch_cpus.itb.walker.pwrStateResidencyTicks::UNDEFINED 1317709737500                       # Cumulative time (in ticks) in various power states
system.tol2bus.pwrStateResidencyTicks::UNDEFINED 1317709737500                       # Cumulative time (in ticks) in various power states
system.tol2bus.trans_dist::ReadResp           1636670                       # Transaction distribution
system.tol2bus.trans_dist::WritebackDirty       609304                       # Transaction distribution
system.tol2bus.trans_dist::WritebackClean      1016037                       # Transaction distribution
system.tol2bus.trans_dist::CleanEvict          366102                       # Transaction distribution
system.tol2bus.trans_dist::UpgradeReq              28                       # Transaction distribution
system.tol2bus.trans_dist::UpgradeResp             28                       # Transaction distribution
system.tol2bus.trans_dist::ReadExReq           223405                       # Transaction distribution
system.tol2bus.trans_dist::ReadExResp          223405                       # Transaction distribution
system.tol2bus.trans_dist::ReadCleanReq       1016065                       # Transaction distribution
system.tol2bus.trans_dist::ReadSharedReq       620605                       # Transaction distribution
system.tol2bus.pkt_count_system.cpu.icache.mem_side::system.l2.cpu_side      3048139                       # Packet count per connected master and slave (bytes)
system.tol2bus.pkt_count_system.cpu.dcache.mem_side::system.l2.cpu_side      2532086                       # Packet count per connected master and slave (bytes)
system.tol2bus.pkt_count::total               5580225                       # Packet count per connected master and slave (bytes)
system.tol2bus.pkt_size_system.cpu.icache.mem_side::system.l2.cpu_side    130052736                       # Cumulative packet size per connected master and slave (bytes)
system.tol2bus.pkt_size_system.cpu.dcache.mem_side::system.l2.cpu_side     87655552                       # Cumulative packet size per connected master and slave (bytes)
system.tol2bus.pkt_size::total              217708288                       # Cumulative packet size per connected master and slave (bytes)
system.tol2bus.snoops                          131424                       # Total snoops (count)
system.tol2bus.snoopTraffic                   5358336                       # Total snoop traffic (bytes)
system.tol2bus.snoop_fanout::samples          1994573                       # Request fanout histogram
system.tol2bus.snoop_fanout::mean            0.002848                       # Request fanout histogram
system.tol2bus.snoop_fanout::stdev           0.053288                       # Request fanout histogram
system.tol2bus.snoop_fanout::underflows             0      0.00%      0.00% # Request fanout histogram
system.tol2bus.snoop_fanout::0                1988893     99.72%     99.72% # Request fanout histogram
system.tol2bus.snoop_fanout::1                   5680      0.28%    100.00% # Request fanout histogram
system.tol2bus.snoop_fanout::2                      0      0.00%    100.00% # Request fanout histogram
system.tol2bus.snoop_fanout::3                      0      0.00%    100.00% # Request fanout histogram
system.tol2bus.snoop_fanout::4                      0      0.00%    100.00% # Request fanout histogram
system.tol2bus.snoop_fanout::overflows              0      0.00%    100.00% # Request fanout histogram
system.tol2bus.snoop_fanout::min_value              0                       # Request fanout histogram
system.tol2bus.snoop_fanout::max_value              1                       # Request fanout histogram
system.tol2bus.snoop_fanout::total            1994573                       # Request fanout histogram
system.tol2bus.reqLayer0.occupancy         3410643071                       # Layer occupancy (ticks)
system.tol2bus.reqLayer0.utilization              1.2                       # Layer utilization (%)
system.tol2bus.respLayer1.occupancy        1266039479                       # Layer occupancy (ticks)
system.tol2bus.respLayer1.utilization             0.5                       # Layer utilization (%)
system.tol2bus.respLayer0.occupancy        1524109476                       # Layer occupancy (ticks)
system.tol2bus.respLayer0.utilization             0.6                       # Layer utilization (%)
system.voltage_domain.voltage                       1                       # Voltage in Volts
system.clk_domain.clock                          1000                       # Clock period in ticks
system.l2.pwrStateResidencyTicks::UNDEFINED 1317709737500                       # Cumulative time (in ticks) in various power states
system.l2.demand_hits::.switch_cpus.inst      1015594                       # number of demand (read+write) hits
system.l2.demand_hits::.switch_cpus.data       713859                       # number of demand (read+write) hits
system.l2.demand_hits::total                  1729453                       # number of demand (read+write) hits
system.l2.overall_hits::.switch_cpus.inst      1015594                       # number of overall hits
system.l2.overall_hits::.switch_cpus.data       713859                       # number of overall hits
system.l2.overall_hits::total                 1729453                       # number of overall hits
system.l2.demand_misses::.switch_cpus.inst          443                       # number of demand (read+write) misses
system.l2.demand_misses::.switch_cpus.data       130151                       # number of demand (read+write) misses
system.l2.demand_misses::total                 130594                       # number of demand (read+write) misses
system.l2.overall_misses::.switch_cpus.inst          443                       # number of overall misses
system.l2.overall_misses::.switch_cpus.data       130151                       # number of overall misses
system.l2.overall_misses::total                130594                       # number of overall misses
system.l2.demand_miss_latency::.switch_cpus.inst     38562932                       # number of demand (read+write) miss cycles
system.l2.demand_miss_latency::.switch_cpus.data  11055812950                       # number of demand (read+write) miss cycles
system.l2.demand_miss_latency::total      11094375882                       # number of demand (read+write) miss cycles
system.l2.overall_miss_latency::.switch_cpus.inst     38562932                       # number of overall miss cycles
system.l2.overall_miss_latency::.switch_cpus.data  11055812950                       # number of overall miss cycles
system.l2.overall_miss_latency::total     11094375882                       # number of overall miss cycles
system.l2.demand_accesses::.switch_cpus.inst      1016037                       # number of demand (read+write) accesses
system.l2.demand_accesses::.switch_cpus.data       844010                       # number of demand (read+write) accesses
system.l2.demand_accesses::total              1860047                       # number of demand (read+write) accesses
system.l2.overall_accesses::.switch_cpus.inst      1016037                       # number of overall (read+write) accesses
system.l2.overall_accesses::.switch_cpus.data       844010                       # number of overall (read+write) accesses
system.l2.overall_accesses::total             1860047                       # number of overall (read+write) accesses
system.l2.demand_miss_rate::.switch_cpus.inst     0.000436                       # miss rate for demand accesses
system.l2.demand_miss_rate::.switch_cpus.data     0.154206                       # miss rate for demand accesses
system.l2.demand_miss_rate::total            0.070210                       # miss rate for demand accesses
system.l2.overall_miss_rate::.switch_cpus.inst     0.000436                       # miss rate for overall accesses
system.l2.overall_miss_rate::.switch_cpus.data     0.154206                       # miss rate for overall accesses
system.l2.overall_miss_rate::total           0.070210                       # miss rate for overall accesses
system.l2.demand_avg_miss_latency::.switch_cpus.inst 87049.507901                       # average overall miss latency
system.l2.demand_avg_miss_latency::.switch_cpus.data 84946.046899                       # average overall miss latency
system.l2.demand_avg_miss_latency::total 84953.182244                       # average overall miss latency
system.l2.overall_avg_miss_latency::.switch_cpus.inst 87049.507901                       # average overall miss latency
system.l2.overall_avg_miss_latency::.switch_cpus.data 84946.046899                       # average overall miss latency
system.l2.overall_avg_miss_latency::total 84953.182244                       # average overall miss latency
system.l2.blocked_cycles::no_mshrs           19576754                       # number of cycles access was blocked
system.l2.blocked_cycles::no_targets                0                       # number of cycles access was blocked
system.l2.blocked::no_mshrs                    130594                       # number of cycles access was blocked
system.l2.blocked::no_targets                       0                       # number of cycles access was blocked
system.l2.avg_blocked_cycles::no_mshrs     149.905463                       # average number of cycles each access was blocked
system.l2.avg_blocked_cycles::no_targets          nan                       # average number of cycles each access was blocked
system.l2.writebacks::.writebacks               83696                       # number of writebacks
system.l2.writebacks::total                     83696                       # number of writebacks
system.l2.demand_mshr_misses::.switch_cpus.inst          443                       # number of demand (read+write) MSHR misses
system.l2.demand_mshr_misses::.switch_cpus.data       130151                       # number of demand (read+write) MSHR misses
system.l2.demand_mshr_misses::total            130594                       # number of demand (read+write) MSHR misses
system.l2.overall_mshr_misses::.switch_cpus.inst          443                       # number of overall MSHR misses
system.l2.overall_mshr_misses::.switch_cpus.data       130151                       # number of overall MSHR misses
system.l2.overall_mshr_misses::total           130594                       # number of overall MSHR misses
system.l2.demand_mshr_miss_latency::.switch_cpus.inst     34132932                       # number of demand (read+write) MSHR miss cycles
system.l2.demand_mshr_miss_latency::.switch_cpus.data   9754302950                       # number of demand (read+write) MSHR miss cycles
system.l2.demand_mshr_miss_latency::total   9788435882                       # number of demand (read+write) MSHR miss cycles
system.l2.overall_mshr_miss_latency::.switch_cpus.inst     34132932                       # number of overall MSHR miss cycles
system.l2.overall_mshr_miss_latency::.switch_cpus.data   9754302950                       # number of overall MSHR miss cycles
system.l2.overall_mshr_miss_latency::total   9788435882                       # number of overall MSHR miss cycles
system.l2.demand_mshr_miss_rate::.switch_cpus.inst     0.000436                       # mshr miss rate for demand accesses
system.l2.demand_mshr_miss_rate::.switch_cpus.data     0.154206                       # mshr miss rate for demand accesses
system.l2.demand_mshr_miss_rate::total       0.070210                       # mshr miss rate for demand accesses
system.l2.overall_mshr_miss_rate::.switch_cpus.inst     0.000436                       # mshr miss rate for overall accesses
system.l2.overall_mshr_miss_rate::.switch_cpus.data     0.154206                       # mshr miss rate for overall accesses
system.l2.overall_mshr_miss_rate::total      0.070210                       # mshr miss rate for overall accesses
system.l2.demand_avg_mshr_miss_latency::.switch_cpus.inst 77049.507901                       # average overall mshr miss latency
system.l2.demand_avg_mshr_miss_latency::.switch_cpus.data 74946.046899                       # average overall mshr miss latency
system.l2.demand_avg_mshr_miss_latency::total 74953.182244                       # average overall mshr miss latency
system.l2.overall_avg_mshr_miss_latency::.switch_cpus.inst 77049.507901                       # average overall mshr miss latency
system.l2.overall_avg_mshr_miss_latency::.switch_cpus.data 74946.046899                       # average overall mshr miss latency
system.l2.overall_avg_mshr_miss_latency::total 74953.182244                       # average overall mshr miss latency
system.l2.replacements                         131396                       # number of replacements
system.l2.WritebackDirty_hits::.writebacks       525608                       # number of WritebackDirty hits
system.l2.WritebackDirty_hits::total           525608                       # number of WritebackDirty hits
system.l2.WritebackDirty_accesses::.writebacks       525608                       # number of WritebackDirty accesses(hits+misses)
system.l2.WritebackDirty_accesses::total       525608                       # number of WritebackDirty accesses(hits+misses)
system.l2.WritebackClean_hits::.writebacks      1015854                       # number of WritebackClean hits
system.l2.WritebackClean_hits::total          1015854                       # number of WritebackClean hits
system.l2.WritebackClean_accesses::.writebacks      1015854                       # number of WritebackClean accesses(hits+misses)
system.l2.WritebackClean_accesses::total      1015854                       # number of WritebackClean accesses(hits+misses)
system.l2.CleanEvict_mshr_misses::.writebacks          249                       # number of CleanEvict MSHR misses
system.l2.CleanEvict_mshr_misses::total           249                       # number of CleanEvict MSHR misses
system.l2.CleanEvict_mshr_miss_rate::.writebacks          inf                       # mshr miss rate for CleanEvict accesses
system.l2.CleanEvict_mshr_miss_rate::total          inf                       # mshr miss rate for CleanEvict accesses
system.l2.UpgradeReq_hits::.switch_cpus.data           28                       # number of UpgradeReq hits
system.l2.UpgradeReq_hits::total                   28                       # number of UpgradeReq hits
system.l2.UpgradeReq_accesses::.switch_cpus.data           28                       # number of UpgradeReq accesses(hits+misses)
system.l2.UpgradeReq_accesses::total               28                       # number of UpgradeReq accesses(hits+misses)
system.l2.ReadExReq_hits::.switch_cpus.data       220902                       # number of ReadExReq hits
system.l2.ReadExReq_hits::total                220902                       # number of ReadExReq hits
system.l2.ReadExReq_misses::.switch_cpus.data         2503                       # number of ReadExReq misses
system.l2.ReadExReq_misses::total                2503                       # number of ReadExReq misses
system.l2.ReadExReq_miss_latency::.switch_cpus.data    198284994                       # number of ReadExReq miss cycles
system.l2.ReadExReq_miss_latency::total     198284994                       # number of ReadExReq miss cycles
system.l2.ReadExReq_accesses::.switch_cpus.data       223405                       # number of ReadExReq accesses(hits+misses)
system.l2.ReadExReq_accesses::total            223405                       # number of ReadExReq accesses(hits+misses)
system.l2.ReadExReq_miss_rate::.switch_cpus.data     0.011204                       # miss rate for ReadExReq accesses
system.l2.ReadExReq_miss_rate::total         0.011204                       # miss rate for ReadExReq accesses
system.l2.ReadExReq_avg_miss_latency::.switch_cpus.data 79218.934878                       # average ReadExReq miss latency
system.l2.ReadExReq_avg_miss_latency::total 79218.934878                       # average ReadExReq miss latency
system.l2.ReadExReq_mshr_misses::.switch_cpus.data         2503                       # number of ReadExReq MSHR misses
system.l2.ReadExReq_mshr_misses::total           2503                       # number of ReadExReq MSHR misses
system.l2.ReadExReq_mshr_miss_latency::.switch_cpus.data    173254994                       # number of ReadExReq MSHR miss cycles
system.l2.ReadExReq_mshr_miss_latency::total    173254994                       # number of ReadExReq MSHR miss cycles
system.l2.ReadExReq_mshr_miss_rate::.switch_cpus.data     0.011204                       # mshr miss rate for ReadExReq accesses
system.l2.ReadExReq_mshr_miss_rate::total     0.011204                       # mshr miss rate for ReadExReq accesses
system.l2.ReadExReq_avg_mshr_miss_latency::.switch_cpus.data 69218.934878                       # average ReadExReq mshr miss latency
system.l2.ReadExReq_avg_mshr_miss_latency::total 69218.934878                       # average ReadExReq mshr miss latency
system.l2.ReadCleanReq_hits::.switch_cpus.inst      1015594                       # number of ReadCleanReq hits
system.l2.ReadCleanReq_hits::total            1015594                       # number of ReadCleanReq hits
system.l2.ReadCleanReq_misses::.switch_cpus.inst          443                       # number of ReadCleanReq misses
system.l2.ReadCleanReq_misses::total              443                       # number of ReadCleanReq misses
system.l2.ReadCleanReq_miss_latency::.switch_cpus.inst     38562932                       # number of ReadCleanReq miss cycles
system.l2.ReadCleanReq_miss_latency::total     38562932                       # number of ReadCleanReq miss cycles
system.l2.ReadCleanReq_accesses::.switch_cpus.inst      1016037                       # number of ReadCleanReq accesses(hits+misses)
system.l2.ReadCleanReq_accesses::total        1016037                       # number of ReadCleanReq accesses(hits+misses)
system.l2.ReadCleanReq_miss_rate::.switch_cpus.inst     0.000436                       # miss rate for ReadCleanReq accesses
system.l2.ReadCleanReq_miss_rate::total      0.000436                       # miss rate for ReadCleanReq accesses
system.l2.ReadCleanReq_avg_miss_latency::.switch_cpus.inst 87049.507901                       # average ReadCleanReq miss latency
system.l2.ReadCleanReq_avg_miss_latency::total 87049.507901                       # average ReadCleanReq miss latency
system.l2.ReadCleanReq_mshr_misses::.switch_cpus.inst          443                       # number of ReadCleanReq MSHR misses
system.l2.ReadCleanReq_mshr_misses::total          443                       # number of ReadCleanReq MSHR misses
system.l2.ReadCleanReq_mshr_miss_latency::.switch_cpus.inst     34132932                       # number of ReadCleanReq MSHR miss cycles
system.l2.ReadCleanReq_mshr_miss_latency::total     34132932                       # number of ReadCleanReq MSHR miss cycles
system.l2.ReadCleanReq_mshr_miss_rate::.switch_cpus.inst     0.000436                       # mshr miss rate for ReadCleanReq accesses
system.l2.ReadCleanReq_mshr_miss_rate::total     0.000436                       # mshr miss rate for ReadCleanReq accesses
system.l2.ReadCleanReq_avg_mshr_miss_latency::.switch_cpus.inst 77049.507901                       # average ReadCleanReq mshr miss latency
system.l2.ReadCleanReq_avg_mshr_miss_latency::total 77049.507901                       # average ReadCleanReq mshr miss latency
[...]
system.cpu.icache.tags.occ_task_id_percent::1024     0.998047                       # Percentage of cache occupancy per task id
system.cpu.icache.tags.tag_accesses        5978714277                       # Number of tag accesses
system.cpu.icache.tags.data_accesses       5978714277                       # Number of data accesses
system.cpu.dtb.walker.pwrStateResidencyTicks::UNDEFINED 1317709737500                       # Cumulative time (in ticks) in various power states
system.cpu.interrupts.clk_domain.clock           8000                       # Clock period in ticks
system.cpu.itb_walker_cache.pwrStateResidencyTicks::UNDEFINED 1317709737500                       # Cumulative time (in ticks) in various power states
system.cpu.itb_walker_cache.blocked_cycles::no_mshrs            0                       # number of cycles access was blocked
system.cpu.itb_walker_cache.blocked_cycles::no_targets            0                       # number of cycles access was blocked
system.cpu.itb_walker_cache.blocked::no_mshrs            0                       # number of cycles access was blocked
system.cpu.itb_walker_cache.blocked::no_targets            0                       # number of cycles access was blocked
system.cpu.itb_walker_cache.avg_blocked_cycles::no_mshrs          nan                       # average number of cycles each access was blocked
system.cpu.itb_walker_cache.avg_blocked_cycles::no_targets          nan                       # average number of cycles each access was blocked
system.cpu.itb_walker_cache.replacements            0                       # number of replacements
system.cpu.itb_walker_cache.tags.pwrStateResidencyTicks::UNDEFINED 1317709737500                       # Cumulative time (in ticks) in various power states
system.cpu.itb_walker_cache.tags.tagsinuse            0                       # Cycle average of tags in use
system.cpu.itb_walker_cache.tags.total_refs            0                       # Total number of references to valid blocks.
system.cpu.itb_walker_cache.tags.sampled_refs            0                       # Sample count of references to valid blocks.
system.cpu.itb_walker_cache.tags.avg_refs          nan                       # Average number of references to valid blocks.
system.cpu.itb_walker_cache.tags.warmup_cycle            0                       # Cycle when the warmup percentage was hit.
system.cpu.itb_walker_cache.tags.tag_accesses            0                       # Number of tag accesses
system.cpu.itb_walker_cache.tags.data_accesses            0                       # Number of data accesses
system.cpu.itb.walker.pwrStateResidencyTicks::UNDEFINED 1317709737500                       # Cumulative time (in ticks) in various power states
system.cpu.dtb_walker_cache.pwrStateResidencyTicks::UNDEFINED 1317709737500                       # Cumulative time (in ticks) in various power states
system.cpu.dtb_walker_cache.blocked_cycles::no_mshrs            0                       # number of cycles access was blocked
system.cpu.dtb_walker_cache.blocked_cycles::no_targets            0                       # number of cycles access was blocked
system.cpu.dtb_walker_cache.blocked::no_mshrs            0                       # number of cycles access was blocked
system.cpu.dtb_walker_cache.blocked::no_targets            0                       # number of cycles access was blocked
system.cpu.dtb_walker_cache.avg_blocked_cycles::no_mshrs          nan                       # average number of cycles each access was blocked
system.cpu.dtb_walker_cache.avg_blocked_cycles::no_targets          nan                       # average number of cycles each access was blocked
system.cpu.dtb_walker_cache.replacements            0                       # number of replacements
system.cpu.dtb_walker_cache.tags.pwrStateResidencyTicks::UNDEFINED 1317709737500                       # Cumulative time (in ticks) in various power states
system.cpu.dtb_walker_cache.tags.tagsinuse            0                       # Cycle average of tags in use
system.cpu.dtb_walker_cache.tags.total_refs            0                       # Total number of references to valid blocks.
system.cpu.dtb_walker_cache.tags.sampled_refs            0                       # Sample count of references to valid blocks.
system.cpu.dtb_walker_cache.tags.avg_refs          nan                       # Average number of references to valid blocks.
system.cpu.dtb_walker_cache.tags.warmup_cycle            0                       # Cycle when the warmup percentage was hit.
system.cpu.dtb_walker_cache.tags.tag_accesses            0                       # Number of tag accesses
system.cpu.dtb_walker_cache.tags.data_accesses            0                       # Number of data accesses
system.cpu.dcache.pwrStateResidencyTicks::UNDEFINED 1317709737500                       # Cumulative time (in ticks) in various power states
system.cpu.dcache.demand_hits::.cpu.data    456732581                       # number of demand (read+write) hits
system.cpu.dcache.demand_hits::.switch_cpus.data    220179385                       # number of demand (read+write) hits
system.cpu.dcache.demand_hits::total        676911966                       # number of demand (read+write) hits
system.cpu.dcache.overall_hits::.cpu.data    456732581                       # number of overall hits
system.cpu.dcache.overall_hits::.switch_cpus.data    220179385                       # number of overall hits
system.cpu.dcache.overall_hits::total       676911966                       # number of overall hits
system.cpu.dcache.demand_misses::.cpu.data     23923740                       # number of demand (read+write) misses
system.cpu.dcache.demand_misses::.switch_cpus.data       844038                       # number of demand (read+write) misses
system.cpu.dcache.demand_misses::total       24767778                       # number of demand (read+write) misses
system.cpu.dcache.overall_misses::.cpu.data     23923740                       # number of overall misses
system.cpu.dcache.overall_misses::.switch_cpus.data       844038                       # number of overall misses
system.cpu.dcache.overall_misses::total      24767778                       # number of overall misses
system.cpu.dcache.demand_miss_latency::.switch_cpus.data  20868246850                       # number of demand (read+write) miss cycles
system.cpu.dcache.demand_miss_latency::total  20868246850                       # number of demand (read+write) miss cycles
system.cpu.dcache.overall_miss_latency::.switch_cpus.data  20868246850                       # number of overall miss cycles
system.cpu.dcache.overall_miss_latency::total  20868246850                       # number of overall miss cycles
system.cpu.dcache.demand_accesses::.cpu.data    480656321                       # number of demand (read+write) accesses
system.cpu.dcache.demand_accesses::.switch_cpus.data    221023423                       # number of demand (read+write) accesses
system.cpu.dcache.demand_accesses::total    701679744                       # number of demand (read+write) accesses
system.cpu.dcache.overall_accesses::.cpu.data    480656321                       # number of overall (read+write) accesses
system.cpu.dcache.overall_accesses::.switch_cpus.data    221023423                       # number of overall (read+write) accesses
system.cpu.dcache.overall_accesses::total    701679744                       # number of overall (read+write) accesses
system.cpu.dcache.demand_miss_rate::.cpu.data     0.049773                       # miss rate for demand accesses
system.cpu.dcache.demand_miss_rate::.switch_cpus.data     0.003819                       # miss rate for demand accesses
system.cpu.dcache.demand_miss_rate::total     0.035298                       # miss rate for demand accesses
system.cpu.dcache.overall_miss_rate::.cpu.data     0.049773                       # miss rate for overall accesses
system.cpu.dcache.overall_miss_rate::.switch_cpus.data     0.003819                       # miss rate for overall accesses
system.cpu.dcache.overall_miss_rate::total     0.035298                       # miss rate for overall accesses
system.cpu.dcache.demand_avg_miss_latency::.switch_cpus.data 24724.297780                       # average overall miss latency
system.cpu.dcache.demand_avg_miss_latency::total   842.556278                       # average overall miss latency
system.cpu.dcache.overall_avg_miss_latency::.switch_cpus.data 24724.297780                       # average overall miss latency
system.cpu.dcache.overall_avg_miss_latency::total   842.556278                       # average overall miss latency
system.cpu.dcache.blocked_cycles::no_mshrs     40045274                       # number of cycles access was blocked
system.cpu.dcache.blocked_cycles::no_targets            0                       # number of cycles access was blocked
system.cpu.dcache.blocked::no_mshrs            844038                       # number of cycles access was blocked
system.cpu.dcache.blocked::no_targets               0                       # number of cycles access was blocked
system.cpu.dcache.avg_blocked_cycles::no_mshrs    47.444871                       # average number of cycles each access was blocked
system.cpu.dcache.avg_blocked_cycles::no_targets          nan                       # average number of cycles each access was blocked
system.cpu.dcache.writebacks::.writebacks     24019265                       # number of writebacks
system.cpu.dcache.writebacks::total          24019265                       # number of writebacks
system.cpu.dcache.demand_mshr_misses::.switch_cpus.data       844038                       # number of demand (read+write) MSHR misses
system.cpu.dcache.demand_mshr_misses::total       844038                       # number of demand (read+write) MSHR misses
system.cpu.dcache.overall_mshr_misses::.switch_cpus.data       844038                       # number of overall MSHR misses
system.cpu.dcache.overall_mshr_misses::total       844038                       # number of overall MSHR misses
system.cpu.dcache.demand_mshr_miss_latency::.switch_cpus.data  20024208850                       # number of demand (read+write) MSHR miss cycles
system.cpu.dcache.demand_mshr_miss_latency::total  20024208850                       # number of demand (read+write) MSHR miss cycles
system.cpu.dcache.overall_mshr_miss_latency::.switch_cpus.data  20024208850                       # number of overall MSHR miss cycles
system.cpu.dcache.overall_mshr_miss_latency::total  20024208850                       # number of overall MSHR miss cycles
system.cpu.dcache.demand_mshr_miss_rate::.switch_cpus.data     0.003819                       # mshr miss rate for demand accesses
system.cpu.dcache.demand_mshr_miss_rate::total     0.001203                       # mshr miss rate for demand accesses
system.cpu.dcache.overall_mshr_miss_rate::.switch_cpus.data     0.003819                       # mshr miss rate for overall accesses
system.cpu.dcache.overall_mshr_miss_rate::total     0.001203                       # mshr miss rate for overall accesses
system.cpu.dcache.demand_avg_mshr_miss_latency::.switch_cpus.data 23724.297780                       # average overall mshr miss latency
system.cpu.dcache.demand_avg_mshr_miss_latency::total 23724.297780                       # average overall mshr miss latency
system.cpu.dcache.overall_avg_mshr_miss_latency::.switch_cpus.data 23724.297780                       # average overall mshr miss latency
system.cpu.dcache.overall_avg_mshr_miss_latency::total 23724.297780                       # average overall mshr miss latency
system.cpu.dcache.replacements               24767238                       # number of replacements
system.cpu.dcache.ReadReq_hits::.cpu.data    206532935                       # number of ReadReq hits
system.cpu.dcache.ReadReq_hits::.switch_cpus.data    165182023                       # number of ReadReq hits
system.cpu.dcache.ReadReq_hits::total       371714958                       # number of ReadReq hits
system.cpu.dcache.ReadReq_misses::.cpu.data       879469                       # number of ReadReq misses
system.cpu.dcache.ReadReq_misses::.switch_cpus.data       620605                       # number of ReadReq misses
system.cpu.dcache.ReadReq_misses::total       1500074                       # number of ReadReq misses
system.cpu.dcache.ReadReq_miss_latency::.switch_cpus.data  17776839500                       # number of ReadReq miss cycles
system.cpu.dcache.ReadReq_miss_latency::total  17776839500                       # number of ReadReq miss cycles
system.cpu.dcache.ReadReq_accesses::.cpu.data    207412404                       # number of ReadReq accesses(hits+misses)
system.cpu.dcache.ReadReq_accesses::.switch_cpus.data    165802628                       # number of ReadReq accesses(hits+misses)
system.cpu.dcache.ReadReq_accesses::total    373215032                       # number of ReadReq accesses(hits+misses)
system.cpu.dcache.ReadReq_miss_rate::.cpu.data     0.004240                       # miss rate for ReadReq accesses
system.cpu.dcache.ReadReq_miss_rate::.switch_cpus.data     0.003743                       # miss rate for ReadReq accesses
system.cpu.dcache.ReadReq_miss_rate::total     0.004019                       # miss rate for ReadReq accesses
system.cpu.dcache.ReadReq_avg_miss_latency::.switch_cpus.data 28644.370413                       # average ReadReq miss latency
system.cpu.dcache.ReadReq_avg_miss_latency::total 11850.641702                       # average ReadReq miss latency
system.cpu.dcache.ReadReq_mshr_misses::.switch_cpus.data       620605                       # number of ReadReq MSHR misses
system.cpu.dcache.ReadReq_mshr_misses::total       620605                       # number of ReadReq MSHR misses
system.cpu.dcache.ReadReq_mshr_miss_latency::.switch_cpus.data  17156234500                       # number of ReadReq MSHR miss cycles
system.cpu.dcache.ReadReq_mshr_miss_latency::total  17156234500                       # number of ReadReq MSHR miss cycles
system.cpu.dcache.ReadReq_mshr_miss_rate::.switch_cpus.data     0.003743                       # mshr miss rate for ReadReq accesses
system.cpu.dcache.ReadReq_mshr_miss_rate::total     0.001663                       # mshr miss rate for ReadReq accesses
system.cpu.dcache.ReadReq_avg_mshr_miss_latency::.switch_cpus.data 27644.370413                       # average ReadReq mshr miss latency
system.cpu.dcache.ReadReq_avg_mshr_miss_latency::total 27644.370413                       # average ReadReq mshr miss latency
system.cpu.dcache.WriteReq_hits::.cpu.data    250199646                       # number of WriteReq hits
system.cpu.dcache.WriteReq_hits::.switch_cpus.data     54997362                       # number of WriteReq hits
system.cpu.dcache.WriteReq_hits::total      305197008                       # number of WriteReq hits
system.cpu.dcache.WriteReq_misses::.cpu.data     23044271                       # number of WriteReq misses
system.cpu.dcache.WriteReq_misses::.switch_cpus.data       223433                       # number of WriteReq misses
system.cpu.dcache.WriteReq_misses::total     23267704                       # number of WriteReq misses
system.cpu.dcache.WriteReq_miss_latency::.switch_cpus.data   3091407350                       # number of WriteReq miss cycles
system.cpu.dcache.WriteReq_miss_latency::total   3091407350                       # number of WriteReq miss cycles
system.cpu.dcache.WriteReq_accesses::.cpu.data    273243917                       # number of WriteReq accesses(hits+misses)
system.cpu.dcache.WriteReq_accesses::.switch_cpus.data     55220795                       # number of WriteReq accesses(hits+misses)
system.cpu.dcache.WriteReq_accesses::total    328464712                       # number of WriteReq accesses(hits+misses)
system.cpu.dcache.WriteReq_miss_rate::.cpu.data     0.084336                       # miss rate for WriteReq accesses
system.cpu.dcache.WriteReq_miss_rate::.switch_cpus.data     0.004046                       # miss rate for WriteReq accesses
system.cpu.dcache.WriteReq_miss_rate::total     0.070838                       # miss rate for WriteReq accesses
system.cpu.dcache.WriteReq_avg_miss_latency::.switch_cpus.data 13835.947913                       # average WriteReq miss latency
system.cpu.dcache.WriteReq_avg_miss_latency::total   132.862587                       # average WriteReq miss latency
system.cpu.dcache.WriteReq_mshr_misses::.switch_cpus.data       223433                       # number of WriteReq MSHR misses
system.cpu.dcache.WriteReq_mshr_misses::total       223433                       # number of WriteReq MSHR misses
system.cpu.dcache.WriteReq_mshr_miss_latency::.switch_cpus.data   2867974350                       # number of WriteReq MSHR miss cycles
system.cpu.dcache.WriteReq_mshr_miss_latency::total   2867974350                       # number of WriteReq MSHR miss cycles
system.cpu.dcache.WriteReq_mshr_miss_rate::.switch_cpus.data     0.004046                       # mshr miss rate for WriteReq accesses
system.cpu.dcache.WriteReq_mshr_miss_rate::total     0.000680                       # mshr miss rate for WriteReq accesses
system.cpu.dcache.WriteReq_avg_mshr_miss_latency::.switch_cpus.data 12835.947913                       # average WriteReq mshr miss latency
system.cpu.dcache.WriteReq_avg_mshr_miss_latency::total 12835.947913                       # average WriteReq mshr miss latency
system.cpu.dcache.tags.pwrStateResidencyTicks::UNDEFINED 1317709737500                       # Cumulative time (in ticks) in various power states
system.cpu.dcache.tags.tagsinuse           511.965759                       # Cycle average of tags in use
system.cpu.dcache.tags.total_refs           576013540                       # Total number of references to valid blocks.
system.cpu.dcache.tags.sampled_refs          24767238                       # Sample count of references to valid blocks.
system.cpu.dcache.tags.avg_refs             23.257076                       # Average number of references to valid blocks.
system.cpu.dcache.tags.warmup_cycle              1000                       # Cycle when the warmup percentage was hit.
system.cpu.dcache.tags.occ_blocks::.cpu.data   407.740398                       # Average occupied blocks per requestor
system.cpu.dcache.tags.occ_blocks::.switch_cpus.data   104.225361                       # Average occupied blocks per requestor
system.cpu.dcache.tags.occ_percent::.cpu.data     0.796368                       # Average percentage of cache occupancy
system.cpu.dcache.tags.occ_percent::.switch_cpus.data     0.203565                       # Average percentage of cache occupancy
system.cpu.dcache.tags.occ_percent::total     0.999933                       # Average percentage of cache occupancy
system.cpu.dcache.tags.occ_task_id_blocks::1024          512                       # Occupied blocks per task id
system.cpu.dcache.tags.age_task_id_blocks_1024::0           37                       # Occupied blocks per task id
system.cpu.dcache.tags.age_task_id_blocks_1024::1           88                       # Occupied blocks per task id
system.cpu.dcache.tags.age_task_id_blocks_1024::2          274                       # Occupied blocks per task id
system.cpu.dcache.tags.age_task_id_blocks_1024::3           86                       # Occupied blocks per task id
system.cpu.dcache.tags.age_task_id_blocks_1024::4           27                       # Occupied blocks per task id
system.cpu.dcache.tags.occ_task_id_percent::1024            1                       # Percentage of cache occupancy per task id
system.cpu.dcache.tags.tag_accesses        2831486726                       # Number of tag accesses
system.cpu.dcache.tags.data_accesses       2831486726                       # Number of data accesses

---------- End Simulation Statistics   ----------
