
---------- Begin Simulation Statistics ----------
final_tick                               139527153497716992                       # Number of ticks from beginning of simulation (restored from checkpoints and never reset)
host_inst_rate                                  29086                       # Simulator instruction rate (inst/s)
host_mem_usage                                4361736                       # Number of bytes of host memory used
host_op_rate                                    60872                       # Simulator op (including micro ops) rate (op/s)
host_seconds                                     0.76                       # Real time elapsed on the host
host_tick_rate                              425305591                       # Simulator tick rate (ticks/s)
sim_freq                                 1000000000000                       # Frequency of simulated ticks
sim_insts                                       21969                       # Number of instructions simulated
sim_ops                                         45982                       # Number of ops (including micro ops) simulated
sim_seconds                                  0.000321                       # Number of seconds simulated
sim_ticks                                   321276000                       # Number of ticks simulated
system.cpu.committedInsts                           0                       # Number of instructions committed
system.cpu.committedOps                             0                       # Number of ops (including micro ops) committed
system.cpu.dtb.rdAccesses                           0                       # TLB accesses on read requests
system.cpu.dtb.rdMisses                             0                       # TLB misses on read requests
system.cpu.dtb.wrAccesses                           0                       # TLB accesses on write requests
system.cpu.dtb.wrMisses                             0                       # TLB misses on write requests
system.cpu.idle_fraction                            0                       # Percentage of idle cycles
system.cpu.itb.rdAccesses                           0                       # TLB accesses on read requests
system.cpu.itb.rdMisses                             0                       # TLB misses on read requests
system.cpu.itb.wrAccesses                           0                       # TLB accesses on write requests
system.cpu.itb.wrMisses                             0                       # TLB misses on write requests
system.cpu.not_idle_fraction                        1                       # Percentage of non-idle cycles
system.cpu.numCycles                                0                       # number of cpu cycles simulated
system.cpu.numWorkItemsCompleted                    0                       # number of work items this cpu completed
system.cpu.numWorkItemsStarted                      0                       # number of work items this cpu started
system.cpu.num_busy_cycles                          0                       # Number of busy cycles
system.cpu.num_conditional_control_insts            0                       # number of instructions that are conditional controls
system.cpu.num_fp_alu_accesses                      0                       # Number of float alu accesses
system.cpu.num_fp_insts                             0                       # number of float instructions
system.cpu.num_fp_register_reads                    0                       # number of times the floating registers were read
system.cpu.num_fp_register_writes                   0                       # number of times the floating registers were written
system.cpu.num_func_calls                           0                       # number of times a function call or return occured
system.cpu.num_idle_cycles                          0                       # Number of idle cycles
system.cpu.num_int_alu_accesses                     0                       # Number of integer alu accesses
system.cpu.num_int_insts                            0                       # number of integer instructions
system.cpu.num_int_register_reads                   0                       # number of times the integer registers were read
system.cpu.num_int_register_writes                  0                       # number of times the integer registers were written
system.cpu.num_load_insts                           0                       # Number of load instructions
system.cpu.num_mem_refs                             0                       # number of memory refs
system.cpu.num_store_insts                          0                       # Number of store instructions
system.cpu.num_vec_alu_accesses                     0                       # Number of vector alu accesses
system.cpu.num_vec_insts                            0                       # number of vector instructions
system.cpu.num_vec_register_reads                   0                       # number of times the vector registers were read
system.cpu.num_vec_register_writes                  0                       # number of times the vector registers were written
system.cpu.op_class::No_OpClass                     0                       # Class of executed instruction
system.cpu.op_class::IntAlu                         0                       # Class of executed instruction
system.cpu.op_class::IntMult                        0                       # Class of executed instruction
system.cpu.op_class::IntDiv                         0                       # Class of executed instruction
system.cpu.op_class::FloatAdd                       0                       # Class of executed instruction
system.cpu.op_class::FloatCmp                       0                       # Class of executed instruction
system.cpu.op_class::FloatCvt                       0                       # Class of executed instruction
system.cpu.op_class::FloatMult                      0                       # Class of executed instruction
system.cpu.op_class::FloatMultAcc                   0                       # Class of executed instruction
system.cpu.op_class::FloatDiv                       0                       # Class of executed instruction
system.cpu.op_class::FloatMisc                      0                       # Class of executed instruction
system.cpu.op_class::FloatSqrt                      0                       # Class of executed instruction
system.cpu.op_class::SimdAdd                        0                       # Class of executed instruction
system.cpu.op_class::SimdAddAcc                     0                       # Class of executed instruction
system.cpu.op_class::SimdAlu                        0                       # Class of executed instruction
system.cpu.op_class::SimdCmp                        0                       # Class of executed instruction
system.cpu.op_class::SimdCvt                        0                       # Class of executed instruction
system.cpu.op_class::SimdMisc                       0                       # Class of executed instruction
system.cpu.op_class::SimdMult                       0                       # Class of executed instruction
system.cpu.op_class::SimdMultAcc                    0                       # Class of executed instruction
system.cpu.op_class::SimdShift                      0                       # Class of executed instruction
system.cpu.op_class::SimdShiftAcc                   0                       # Class of executed instruction
system.cpu.op_class::SimdDiv                        0                       # Class of executed instruction
system.cpu.op_class::SimdSqrt                       0                       # Class of executed instruction
system.cpu.op_class::SimdFloatAdd                   0                       # Class of executed instruction
system.cpu.op_class::SimdFloatAlu                   0                       # Class of executed instruction
system.cpu.op_class::SimdFloatCmp                   0                       # Class of executed instruction
system.cpu.op_class::SimdFloatCvt                   0                       # Class of executed instruction
system.cpu.op_class::SimdFloatDiv                   0                       # Class of executed instruction
system.cpu.op_class::SimdFloatMisc                  0                       # Class of executed instruction
system.cpu.op_class::SimdFloatMult                  0                       # Class of executed instruction
system.cpu.op_class::SimdFloatMultAcc               0                       # Class of executed instruction
system.cpu.op_class::SimdFloatSqrt                  0                       # Class of executed instruction
system.cpu.op_class::SimdReduceAdd                  0                       # Class of executed instruction
system.cpu.op_class::SimdReduceAlu                  0                       # Class of executed instruction
system.cpu.op_class::SimdReduceCmp                  0                       # Class of executed instruction
system.cpu.op_class::SimdFloatReduceAdd             0                       # Class of executed instruction
system.cpu.op_class::SimdFloatReduceCmp             0                       # Class of executed instruction
system.cpu.op_class::SimdAes                        0                       # Class of executed instruction
system.cpu.op_class::SimdAesMix                     0                       # Class of executed instruction
system.cpu.op_class::SimdSha1Hash                   0                       # Class of executed instruction
system.cpu.op_class::SimdSha1Hash2                  0                       # Class of executed instruction
system.cpu.op_class::SimdSha256Hash                 0                       # Class of executed instruction
system.cpu.op_class::SimdSha256Hash2                0                       # Class of executed instruction
system.cpu.op_class::SimdShaSigma2                  0                       # Class of executed instruction
system.cpu.op_class::SimdShaSigma3                  0                       # Class of executed instruction
system.cpu.op_class::SimdPredAlu                    0                       # Class of executed instruction
system.cpu.op_class::MemRead                        0                       # Class of executed instruction
system.cpu.op_class::MemWrite                       0                       # Class of executed instruction
system.cpu.op_class::FloatMemRead                   0                       # Class of executed instruction
system.cpu.op_class::FloatMemWrite                  0                       # Class of executed instruction
system.cpu.op_class::IprAccess                      0                       # Class of executed instruction
system.cpu.op_class::InstPrefetch                   0                       # Class of executed instruction
system.cpu.op_class::total                          0                       # Class of executed instruction
system.cpu.workload.numSyscalls                    64                       # Number of system calls
system.membus.snoop_filter.hit_multi_requests            0                       # Number of requests hitting in the snoop filter with multiple (>1) holders of the requested data.
system.membus.snoop_filter.hit_multi_snoops            0                       # Number of snoops hitting in the snoop filter with multiple (>1) holders of the requested data.
system.membus.snoop_filter.hit_single_requests           11                       # Number of requests hitting in the snoop filter with a single holder of the requested data.
system.membus.snoop_filter.hit_single_snoops            0                       # Number of snoops hitting in the snoop filter with a single holder of the requested data.
system.membus.snoop_filter.tot_requests            31                       # Total number of requests made to the snoop filter.
system.membus.snoop_filter.tot_snoops               0                       # Total number of snoops made to the snoop filter.
system.switch_cpus.branchPred.BTBCorrect            0                       # Number of correct BTB predictions (this stat may not work properly.
system.switch_cpus.branchPred.BTBHitPct      0.000000                       # BTB Hit Percentage
system.switch_cpus.branchPred.BTBHits               0                       # Number of BTB hits
system.switch_cpus.branchPred.BTBLookups          359                       # Number of BTB lookups
system.switch_cpus.branchPred.RASInCorrect            6                       # Number of incorrect RAS predictions.
system.switch_cpus.branchPred.condIncorrect           34                       # Number of conditional branches incorrect
system.switch_cpus.branchPred.condPredicted          402                       # Number of conditional branches predicted
system.switch_cpus.branchPred.indirectHits            1                       # Number of indirect target hits.
system.switch_cpus.branchPred.indirectLookups          359                       # Number of indirect predictor lookups.
system.switch_cpus.branchPred.indirectMisses          358                       # Number of indirect misses.
system.switch_cpus.branchPred.lookups             674                       # Number of BP lookups
system.switch_cpus.branchPred.usedRAS             171                       # Number of times the RAS was used to get a target.
system.switch_cpus.branchPredindirectMispredicted           21                       # Number of mispredicted indirect branches.
system.switch_cpus.cc_regfile_reads               366                       # number of cc regfile reads
system.switch_cpus.cc_regfile_writes              265                       # number of cc regfile writes
system.switch_cpus.commit.amos                      0                       # Number of atomic instructions committed
system.switch_cpus.commit.branchMispredicts           40                       # The number of times a branch was mispredicted
system.switch_cpus.commit.branches                 70                       # Number of branches committed
system.switch_cpus.commit.bw_lim_events            25                       # number cycles where commit BW limit reached
system.switch_cpus.commit.commitNonSpecStalls           64                       # The number of times commit has been forced to stall to communicate backwards
system.switch_cpus.commit.commitSquashedInsts          873                       # The number of squashed insts skipped by commit
system.switch_cpus.commit.committedInsts          309                       # Number of instructions committed
system.switch_cpus.commit.committedOps            631                       # Number of ops (including micro ops) committed
system.switch_cpus.commit.committed_per_cycle::samples       640814                       # Number of insts commited each cycle
system.switch_cpus.commit.committed_per_cycle::mean     0.000985                       # Number of insts commited each cycle
system.switch_cpus.commit.committed_per_cycle::stdev     0.071657                       # Number of insts commited each cycle
system.switch_cpus.commit.committed_per_cycle::underflows            0      0.00%      0.00% # Number of insts commited each cycle
system.switch_cpus.commit.committed_per_cycle::0       640630     99.97%     99.97% # Number of insts commited each cycle
system.switch_cpus.commit.committed_per_cycle::1           55      0.01%     99.98% # Number of insts commited each cycle
system.switch_cpus.commit.committed_per_cycle::2           33      0.01%     99.99% # Number of insts commited each cycle
system.switch_cpus.commit.committed_per_cycle::3           27      0.00%     99.99% # Number of insts commited each cycle
system.switch_cpus.commit.committed_per_cycle::4           19      0.00%     99.99% # Number of insts commited each cycle
system.switch_cpus.commit.committed_per_cycle::5            9      0.00%     99.99% # Number of insts commited each cycle
system.switch_cpus.commit.committed_per_cycle::6            4      0.00%     99.99% # Number of insts commited each cycle
system.switch_cpus.commit.committed_per_cycle::7           12      0.00%    100.00% # Number of insts commited each cycle
system.switch_cpus.commit.committed_per_cycle::8           25      0.00%    100.00% # Number of insts commited each cycle
system.switch_cpus.commit.committed_per_cycle::overflows            0      0.00%    100.00% # Number of insts commited each cycle
system.switch_cpus.commit.committed_per_cycle::min_value            0                       # Number of insts commited each cycle
system.switch_cpus.commit.committed_per_cycle::max_value            8                       # Number of insts commited each cycle
system.switch_cpus.commit.committed_per_cycle::total       640814                       # Number of insts commited each cycle
system.switch_cpus.commit.fp_insts                  0                       # Number of committed floating point instructions.
system.switch_cpus.commit.function_calls           15                       # Number of function calls committed.
system.switch_cpus.commit.int_insts               631                       # Number of committed integer instructions.
system.switch_cpus.commit.loads                    96                       # Number of loads committed
system.switch_cpus.commit.membars                   0                       # Number of memory barriers committed
system.switch_cpus.commit.op_class_0::No_OpClass            0      0.00%      0.00% # Class of committed instruction
system.switch_cpus.commit.op_class_0::IntAlu          474     75.12%     75.12% # Class of committed instruction
system.switch_cpus.commit.op_class_0::IntMult            0      0.00%     75.12% # Class of committed instruction
system.switch_cpus.commit.op_class_0::IntDiv            0      0.00%     75.12% # Class of committed instruction
system.switch_cpus.commit.op_class_0::FloatAdd            0      0.00%     75.12% # Class of committed instruction
system.switch_cpus.commit.op_class_0::FloatCmp            0      0.00%     75.12% # Class of committed instruction
system.switch_cpus.commit.op_class_0::FloatCvt            0      0.00%     75.12% # Class of committed instruction
system.switch_cpus.commit.op_class_0::FloatMult            0      0.00%     75.12% # Class of committed instruction
system.switch_cpus.commit.op_class_0::FloatMultAcc            0      0.00%     75.12% # Class of committed instruction
system.switch_cpus.commit.op_class_0::FloatDiv            0      0.00%     75.12% # Class of committed instruction
system.switch_cpus.commit.op_class_0::FloatMisc            0      0.00%     75.12% # Class of committed instruction
system.switch_cpus.commit.op_class_0::FloatSqrt            0      0.00%     75.12% # Class of committed instruction
system.switch_cpus.commit.op_class_0::SimdAdd            0      0.00%     75.12% # Class of committed instruction
system.switch_cpus.commit.op_class_0::SimdAddAcc            0      0.00%     75.12% # Class of committed instruction
system.switch_cpus.commit.op_class_0::SimdAlu            0      0.00%     75.12% # Class of committed instruction
system.switch_cpus.commit.op_class_0::SimdCmp            0      0.00%     75.12% # Class of committed instruction
system.switch_cpus.commit.op_class_0::SimdCvt            0      0.00%     75.12% # Class of committed instruction
system.switch_cpus.commit.op_class_0::SimdMisc            0      0.00%     75.12% # Class of committed instruction
system.switch_cpus.commit.op_class_0::SimdMult            0      0.00%     75.12% # Class of committed instruction
system.switch_cpus.commit.op_class_0::SimdMultAcc            0      0.00%     75.12% # Class of committed instruction
system.switch_cpus.commit.op_class_0::SimdShift            0      0.00%     75.12% # Class of committed instruction
system.switch_cpus.commit.op_class_0::SimdShiftAcc            0      0.00%     75.12% # Class of committed instruction
system.switch_cpus.commit.op_class_0::SimdDiv            0      0.00%     75.12% # Class of committed instruction
system.switch_cpus.commit.op_class_0::SimdSqrt            0      0.00%     75.12% # Class of committed instruction
system.switch_cpus.commit.op_class_0::SimdFloatAdd            0      0.00%     75.12% # Class of committed instruction
system.switch_cpus.commit.op_class_0::SimdFloatAlu            0      0.00%     75.12% # Class of committed instruction
system.switch_cpus.commit.op_class_0::SimdFloatCmp            0      0.00%     75.12% # Class of committed instruction
system.switch_cpus.commit.op_class_0::SimdFloatCvt            0      0.00%     75.12% # Class of committed instruction
system.switch_cpus.commit.op_class_0::SimdFloatDiv            0      0.00%     75.12% # Class of committed instruction
system.switch_cpus.commit.op_class_0::SimdFloatMisc            0      0.00%     75.12% # Class of committed instruction
system.switch_cpus.commit.op_class_0::SimdFloatMult            0      0.00%     75.12% # Class of committed instruction
system.switch_cpus.commit.op_class_0::SimdFloatMultAcc            0      0.00%     75.12% # Class of committed instruction
system.switch_cpus.commit.op_class_0::SimdFloatSqrt            0      0.00%     75.12% # Class of committed instruction
system.switch_cpus.commit.op_class_0::SimdReduceAdd            0      0.00%     75.12% # Class of committed instruction
system.switch_cpus.commit.op_class_0::SimdReduceAlu            0      0.00%     75.12% # Class of committed instruction
system.switch_cpus.commit.op_class_0::SimdReduceCmp            0      0.00%     75.12% # Class of committed instruction
system.switch_cpus.commit.op_class_0::SimdFloatReduceAdd            0      0.00%     75.12% # Class of committed instruction
system.switch_cpus.commit.op_class_0::SimdFloatReduceCmp            0      0.00%     75.12% # Class of committed instruction
system.switch_cpus.commit.op_class_0::SimdAes            0      0.00%     75.12% # Class of committed instruction
system.switch_cpus.commit.op_class_0::SimdAesMix            0      0.00%     75.12% # Class of committed instruction
system.switch_cpus.commit.op_class_0::SimdSha1Hash            0      0.00%     75.12% # Class of committed instruction
system.switch_cpus.commit.op_class_0::SimdSha1Hash2            0      0.00%     75.12% # Class of committed instruction
system.switch_cpus.commit.op_class_0::SimdSha256Hash            0      0.00%     75.12% # Class of committed instruction
system.switch_cpus.commit.op_class_0::SimdSha256Hash2            0      0.00%     75.12% # Class of committed instruction
system.switch_cpus.commit.op_class_0::SimdShaSigma2            0      0.00%     75.12% # Class of committed instruction
system.switch_cpus.commit.op_class_0::SimdShaSigma3            0      0.00%     75.12% # Class of committed instruction
system.switch_cpus.commit.op_class_0::SimdPredAlu            0      0.00%     75.12% # Class of committed instruction
system.switch_cpus.commit.op_class_0::MemRead           96     15.21%     90.33% # Class of committed instruction
system.switch_cpus.commit.op_class_0::MemWrite           61      9.67%    100.00% # Class of committed instruction
system.switch_cpus.commit.op_class_0::FloatMemRead            0      0.00%    100.00% # Class of committed instruction
system.switch_cpus.commit.op_class_0::FloatMemWrite            0      0.00%    100.00% # Class of committed instruction
system.switch_cpus.commit.op_class_0::IprAccess            0      0.00%    100.00% # Class of committed instruction
system.switch_cpus.commit.op_class_0::InstPrefetch            0      0.00%    100.00% # Class of committed instruction
system.switch_cpus.commit.op_class_0::total          631                       # Class of committed instruction
system.switch_cpus.commit.refs                    157                       # Number of memory references committed
system.switch_cpus.commit.swp_count                 0                       # Number of s/w prefetches committed
system.switch_cpus.commit.vec_insts                 0                       # Number of committed Vector instructions.
system.switch_cpus.committedInsts                 309                       # Number of Instructions Simulated
system.switch_cpus.committedOps                   631                       # Number of Ops (including micro ops) Simulated
system.switch_cpus.cpi                    2079.456311                       # CPI: Cycles Per Instruction
system.switch_cpus.cpi_total              2079.456311                       # CPI: Total CPI of All Threads
system.switch_cpus.decode.BlockedCycles        639909                       # Number of cycles decode is blocked
system.switch_cpus.decode.DecodedInsts           2360                       # Number of instructions handled by decode
system.switch_cpus.decode.IdleCycles              608                       # Number of cycles decode is idle
system.switch_cpus.decode.RunCycles               368                       # Number of cycles decode is running
system.switch_cpus.decode.SquashCycles            103                       # Number of cycles decode is squashing
system.switch_cpus.decode.UnblockCycles            17                       # Number of cycles decode is unblocking
system.switch_cpus.dtb.rdAccesses                 174                       # TLB accesses on read requests
system.switch_cpus.dtb.rdMisses                     7                       # TLB misses on read requests
system.switch_cpus.dtb.wrAccesses                  80                       # TLB accesses on write requests
system.switch_cpus.dtb.wrMisses                     0                       # TLB misses on write requests
system.switch_cpus.fetch.Branches                 674                       # Number of branches that fetch encountered
system.switch_cpus.fetch.CacheLines               238                       # Number of cache lines fetched
system.switch_cpus.fetch.Cycles                640251                       # Number of cycles fetch has run and was not squashing or blocked
system.switch_cpus.fetch.IcacheSquashes            15                       # Number of outstanding Icache misses that were squashed
system.switch_cpus.fetch.Insts                   2152                       # Number of instructions fetch has processed
system.switch_cpus.fetch.MiscStallCycles            6                       # Number of cycles fetch has spent waiting on interrupts, or bad addresses, or out of MSHRs
system.switch_cpus.fetch.PendingTrapStallCycles           54                       # Number of stall cycles due to pending traps
system.switch_cpus.fetch.SquashCycles             206                       # Number of cycles fetch has spent squashing
system.switch_cpus.fetch.branchRate          0.001049                       # Number of branch fetches per cycle
system.switch_cpus.fetch.icacheStallCycles          593                       # Number of cycles fetch is stalled on an Icache miss
system.switch_cpus.fetch.predictedBranches          172                       # Number of branches that fetch has predicted taken
system.switch_cpus.fetch.rate                0.003349                       # Number of inst fetches per cycle
system.switch_cpus.fetch.rateDist::samples       641007                       # Number of instructions fetched each cycle (Total)
system.switch_cpus.fetch.rateDist::mean      0.007950                       # Number of instructions fetched each cycle (Total)
system.switch_cpus.fetch.rateDist::stdev     0.244449                       # Number of instructions fetched each cycle (Total)
system.switch_cpus.fetch.rateDist::underflows            0      0.00%      0.00% # Number of instructions fetched each cycle (Total)
system.switch_cpus.fetch.rateDist::0           640200     99.87%     99.87% # Number of instructions fetched each cycle (Total)
system.switch_cpus.fetch.rateDist::1              142      0.02%     99.90% # Number of instructions fetched each cycle (Total)
system.switch_cpus.fetch.rateDist::2               25      0.00%     99.90% # Number of instructions fetched each cycle (Total)
system.switch_cpus.fetch.rateDist::3                7      0.00%     99.90% # Number of instructions fetched each cycle (Total)
system.switch_cpus.fetch.rateDist::4               12      0.00%     99.90% # Number of instructions fetched each cycle (Total)
system.switch_cpus.fetch.rateDist::5               11      0.00%     99.90% # Number of instructions fetched each cycle (Total)
system.switch_cpus.fetch.rateDist::6               16      0.00%     99.91% # Number of instructions fetched each cycle (Total)
system.switch_cpus.fetch.rateDist::7               68      0.01%     99.92% # Number of instructions fetched each cycle (Total)
system.switch_cpus.fetch.rateDist::8              526      0.08%    100.00% # Number of instructions fetched each cycle (Total)
system.switch_cpus.fetch.rateDist::overflows            0      0.00%    100.00% # Number of instructions fetched each cycle (Total)
system.switch_cpus.fetch.rateDist::min_value            0                       # Number of instructions fetched each cycle (Total)
system.switch_cpus.fetch.rateDist::max_value            8                       # Number of instructions fetched each cycle (Total)
system.switch_cpus.fetch.rateDist::total       641007                       # Number of instructions fetched each cycle (Total)
system.switch_cpus.idleCycles                    1545                       # Total number of cycles that the CPU has spent unscheduled due to idling
system.switch_cpus.iew.branchMispredicts           53                       # Number of branch mispredicts detected at execute
system.switch_cpus.iew.exec_branches              106                       # Number of branches executed
system.switch_cpus.iew.exec_nop                     0                       # number of nop insts executed
system.switch_cpus.iew.exec_rate             0.001830                       # Inst execution rate
system.switch_cpus.iew.exec_refs                  254                       # number of memory reference insts executed
system.switch_cpus.iew.exec_stores                 80                       # Number of stores executed
system.switch_cpus.iew.exec_swp                     0                       # number of swp insts executed
system.switch_cpus.iew.iewBlockCycles              90                       # Number of cycles IEW is blocking
system.switch_cpus.iew.iewDispLoadInsts           229                       # Number of dispatched load instructions
system.switch_cpus.iew.iewDispNonSpecInsts           64                       # Number of dispatched non-speculative instructions
system.switch_cpus.iew.iewDispSquashedInsts            0                       # Number of squashed instructions skipped by dispatch
system.switch_cpus.iew.iewDispStoreInsts          110                       # Number of dispatched store instructions
system.switch_cpus.iew.iewDispatchedInsts         1505                       # Number of instructions dispatched to IQ
system.switch_cpus.iew.iewExecLoadInsts           174                       # Number of load instructions executed
system.switch_cpus.iew.iewExecSquashedInsts           85                       # Number of squashed instructions skipped in execute
system.switch_cpus.iew.iewExecutedInsts          1176                       # Number of executed instructions
system.switch_cpus.iew.iewIQFullEvents              0                       # Number of times the IQ has become full, causing a stall
system.switch_cpus.iew.iewIdleCycles                0                       # Number of cycles IEW is idle
system.switch_cpus.iew.iewLSQFullEvents             0                       # Number of times the LSQ has become full, causing a stall
system.switch_cpus.iew.iewSquashCycles            103                       # Number of cycles IEW is squashing
system.switch_cpus.iew.iewUnblockCycles             0                       # Number of cycles IEW is unblocking
system.switch_cpus.iew.lsq.thread0.blockedLoads            0                       # Number of blocked loads due to partial load-store forwarding
system.switch_cpus.iew.lsq.thread0.cacheBlocked            0                       # Number of times an access to memory failed due to the cache being blocked
system.switch_cpus.iew.lsq.thread0.forwLoads            8                       # Number of loads that had data forwarded from stores
system.switch_cpus.iew.lsq.thread0.ignoredResponses            0                       # Number of memory responses ignored because the instruction is squashed
system.switch_cpus.iew.lsq.thread0.invAddrLoads            0                       # Number of loads ignored due to an invalid address
system.switch_cpus.iew.lsq.thread0.invAddrSwpfs            0                       # Number of software prefetches ignored due to an invalid address
system.switch_cpus.iew.lsq.thread0.memOrderViolation            1                       # Number of memory ordering violations
system.switch_cpus.iew.lsq.thread0.rescheduledLoads            0                       # Number of loads that were rescheduled
system.switch_cpus.iew.lsq.thread0.squashedLoads          133                       # Number of loads squashed
system.switch_cpus.iew.lsq.thread0.squashedStores           49                       # Number of stores squashed
system.switch_cpus.iew.memOrderViolationEvents            1                       # Number of memory order violations
system.switch_cpus.iew.predictedNotTakenIncorrect           46                       # Number of branches that were predicted not taken incorrectly
system.switch_cpus.iew.predictedTakenIncorrect            7                       # Number of branches that were predicted taken incorrectly
system.switch_cpus.iew.wb_consumers              1120                       # num instructions consuming a value
system.switch_cpus.iew.wb_count                  1068                       # cumulative count of insts written-back
system.switch_cpus.iew.wb_fanout             0.668750                       # average fanout of values written-back
system.switch_cpus.iew.wb_producers               749                       # num instructions producing a value
system.switch_cpus.iew.wb_rate               0.001662                       # insts written-back per cycle
system.switch_cpus.iew.wb_sent                   1155                       # cumulative count of insts sent to commit
system.switch_cpus.int_regfile_reads             2144                       # number of integer regfile reads
system.switch_cpus.int_regfile_writes             889                       # number of integer regfile writes
system.switch_cpus.ipc                       0.000481                       # IPC: Instructions Per Cycle
system.switch_cpus.ipc_total                 0.000481                       # IPC: Total IPC of All Threads
system.switch_cpus.iq.FU_type_0::No_OpClass           19      1.51%      1.51% # Type of FU issued
system.switch_cpus.iq.FU_type_0::IntAlu           960     76.13%     77.64% # Type of FU issued
system.switch_cpus.iq.FU_type_0::IntMult            0      0.00%     77.64% # Type of FU issued
system.switch_cpus.iq.FU_type_0::IntDiv             0      0.00%     77.64% # Type of FU issued
system.switch_cpus.iq.FU_type_0::FloatAdd            0      0.00%     77.64% # Type of FU issued
system.switch_cpus.iq.FU_type_0::FloatCmp            0      0.00%     77.64% # Type of FU issued
system.switch_cpus.iq.FU_type_0::FloatCvt            0      0.00%     77.64% # Type of FU issued
system.switch_cpus.iq.FU_type_0::FloatMult            0      0.00%     77.64% # Type of FU issued
system.switch_cpus.iq.FU_type_0::FloatMultAcc            0      0.00%     77.64% # Type of FU issued
system.switch_cpus.iq.FU_type_0::FloatDiv            0      0.00%     77.64% # Type of FU issued
system.switch_cpus.iq.FU_type_0::FloatMisc            0      0.00%     77.64% # Type of FU issued
system.switch_cpus.iq.FU_type_0::FloatSqrt            0      0.00%     77.64% # Type of FU issued
system.switch_cpus.iq.FU_type_0::SimdAdd            0      0.00%     77.64% # Type of FU issued
system.switch_cpus.iq.FU_type_0::SimdAddAcc            0      0.00%     77.64% # Type of FU issued
system.switch_cpus.iq.FU_type_0::SimdAlu            0      0.00%     77.64% # Type of FU issued
system.switch_cpus.iq.FU_type_0::SimdCmp            0      0.00%     77.64% # Type of FU issued
system.switch_cpus.iq.FU_type_0::SimdCvt            0      0.00%     77.64% # Type of FU issued
system.switch_cpus.iq.FU_type_0::SimdMisc            0      0.00%     77.64% # Type of FU issued
system.switch_cpus.iq.FU_type_0::SimdMult            0      0.00%     77.64% # Type of FU issued
system.switch_cpus.iq.FU_type_0::SimdMultAcc            0      0.00%     77.64% # Type of FU issued
system.switch_cpus.iq.FU_type_0::SimdShift            0      0.00%     77.64% # Type of FU issued
system.switch_cpus.iq.FU_type_0::SimdShiftAcc            0      0.00%     77.64% # Type of FU issued
system.switch_cpus.iq.FU_type_0::SimdDiv            0      0.00%     77.64% # Type of FU issued
system.switch_cpus.iq.FU_type_0::SimdSqrt            0      0.00%     77.64% # Type of FU issued
system.switch_cpus.iq.FU_type_0::SimdFloatAdd            0      0.00%     77.64% # Type of FU issued
system.switch_cpus.iq.FU_type_0::SimdFloatAlu            0      0.00%     77.64% # Type of FU issued
system.switch_cpus.iq.FU_type_0::SimdFloatCmp            0      0.00%     77.64% # Type of FU issued
system.switch_cpus.iq.FU_type_0::SimdFloatCvt            0      0.00%     77.64% # Type of FU issued
system.switch_cpus.iq.FU_type_0::SimdFloatDiv            0      0.00%     77.64% # Type of FU issued
system.switch_cpus.iq.FU_type_0::SimdFloatMisc            0      0.00%     77.64% # Type of FU issued
system.switch_cpus.iq.FU_type_0::SimdFloatMult            0      0.00%     77.64% # Type of FU issued
system.switch_cpus.iq.FU_type_0::SimdFloatMultAcc            0      0.00%     77.64% # Type of FU issued
system.switch_cpus.iq.FU_type_0::SimdFloatSqrt            0      0.00%     77.64% # Type of FU issued
system.switch_cpus.iq.FU_type_0::SimdReduceAdd            0      0.00%     77.64% # Type of FU issued
system.switch_cpus.iq.FU_type_0::SimdReduceAlu            0      0.00%     77.64% # Type of FU issued
system.switch_cpus.iq.FU_type_0::SimdReduceCmp            0      0.00%     77.64% # Type of FU issued
system.switch_cpus.iq.FU_type_0::SimdFloatReduceAdd            0      0.00%     77.64% # Type of FU issued
system.switch_cpus.iq.FU_type_0::SimdFloatReduceCmp            0      0.00%     77.64% # Type of FU issued
system.switch_cpus.iq.FU_type_0::SimdAes            0      0.00%     77.64% # Type of FU issued
system.switch_cpus.iq.FU_type_0::SimdAesMix            0      0.00%     77.64% # Type of FU issued
system.switch_cpus.iq.FU_type_0::SimdSha1Hash            0      0.00%     77.64% # Type of FU issued
system.switch_cpus.iq.FU_type_0::SimdSha1Hash2            0      0.00%     77.64% # Type of FU issued
system.switch_cpus.iq.FU_type_0::SimdSha256Hash            0      0.00%     77.64% # Type of FU issued
system.switch_cpus.iq.FU_type_0::SimdSha256Hash2            0      0.00%     77.64% # Type of FU issued
system.switch_cpus.iq.FU_type_0::SimdShaSigma2            0      0.00%     77.64% # Type of FU issued
system.switch_cpus.iq.FU_type_0::SimdShaSigma3            0      0.00%     77.64% # Type of FU issued
system.switch_cpus.iq.FU_type_0::SimdPredAlu            0      0.00%     77.64% # Type of FU issued
system.switch_cpus.iq.FU_type_0::MemRead          191     15.15%     92.78% # Type of FU issued
system.switch_cpus.iq.FU_type_0::MemWrite           91      7.22%    100.00% # Type of FU issued
system.switch_cpus.iq.FU_type_0::FloatMemRead            0      0.00%    100.00% # Type of FU issued
system.switch_cpus.iq.FU_type_0::FloatMemWrite            0      0.00%    100.00% # Type of FU issued
system.switch_cpus.iq.FU_type_0::IprAccess            0      0.00%    100.00% # Type of FU issued
system.switch_cpus.iq.FU_type_0::InstPrefetch            0      0.00%    100.00% # Type of FU issued
system.switch_cpus.iq.FU_type_0::total           1261                       # Type of FU issued
system.switch_cpus.iq.fp_alu_accesses               0                       # Number of floating point alu accesses
system.switch_cpus.iq.fp_inst_queue_reads            0                       # Number of floating instruction queue reads
system.switch_cpus.iq.fp_inst_queue_wakeup_accesses            0                       # Number of floating instruction queue wakeup accesses
system.switch_cpus.iq.fp_inst_queue_writes            0                       # Number of floating instruction queue writes
system.switch_cpus.iq.fu_busy_cnt                  15                       # FU busy when requested
system.switch_cpus.iq.fu_busy_rate           0.011895                       # FU busy rate (busy events/executed inst)
system.switch_cpus.iq.fu_full::No_OpClass            0      0.00%      0.00% # attempts to use FU when none available
system.switch_cpus.iq.fu_full::IntAlu              15    100.00%    100.00% # attempts to use FU when none available
system.switch_cpus.iq.fu_full::IntMult              0      0.00%    100.00% # attempts to use FU when none available
system.switch_cpus.iq.fu_full::IntDiv               0      0.00%    100.00% # attempts to use FU when none available
system.switch_cpus.iq.fu_full::FloatAdd             0      0.00%    100.00% # attempts to use FU when none available
system.switch_cpus.iq.fu_full::FloatCmp             0      0.00%    100.00% # attempts to use FU when none available
system.switch_cpus.iq.fu_full::FloatCvt             0      0.00%    100.00% # attempts to use FU when none available
system.switch_cpus.iq.fu_full::FloatMult            0      0.00%    100.00% # attempts to use FU when none available
system.switch_cpus.iq.fu_full::FloatMultAcc            0      0.00%    100.00% # attempts to use FU when none available
system.switch_cpus.iq.fu_full::FloatDiv             0      0.00%    100.00% # attempts to use FU when none available
system.switch_cpus.iq.fu_full::FloatMisc            0      0.00%    100.00% # attempts to use FU when none available
system.switch_cpus.iq.fu_full::FloatSqrt            0      0.00%    100.00% # attempts to use FU when none available
system.switch_cpus.iq.fu_full::SimdAdd              0      0.00%    100.00% # attempts to use FU when none available
system.switch_cpus.iq.fu_full::SimdAddAcc            0      0.00%    100.00% # attempts to use FU when none available
system.switch_cpus.iq.fu_full::SimdAlu              0      0.00%    100.00% # attempts to use FU when none available
system.switch_cpus.iq.fu_full::SimdCmp              0      0.00%    100.00% # attempts to use FU when none available
system.switch_cpus.iq.fu_full::SimdCvt              0      0.00%    100.00% # attempts to use FU when none available
system.switch_cpus.iq.fu_full::SimdMisc             0      0.00%    100.00% # attempts to use FU when none available
system.switch_cpus.iq.fu_full::SimdMult             0      0.00%    100.00% # attempts to use FU when none available
system.switch_cpus.iq.fu_full::SimdMultAcc            0      0.00%    100.00% # attempts to use FU when none available
system.switch_cpus.iq.fu_full::SimdShift            0      0.00%    100.00% # attempts to use FU when none available
system.switch_cpus.iq.fu_full::SimdShiftAcc            0      0.00%    100.00% # attempts to use FU when none available
system.switch_cpus.iq.fu_full::SimdDiv              0      0.00%    100.00% # attempts to use FU when none available
system.switch_cpus.iq.fu_full::SimdSqrt             0      0.00%    100.00% # attempts to use FU when none available
system.switch_cpus.iq.fu_full::SimdFloatAdd            0      0.00%    100.00% # attempts to use FU when none available
system.switch_cpus.iq.fu_full::SimdFloatAlu            0      0.00%    100.00% # attempts to use FU when none available
system.switch_cpus.iq.fu_full::SimdFloatCmp            0      0.00%    100.00% # attempts to use FU when none available
system.switch_cpus.iq.fu_full::SimdFloatCvt            0      0.00%    100.00% # attempts to use FU when none available
system.switch_cpus.iq.fu_full::SimdFloatDiv            0      0.00%    100.00% # attempts to use FU when none available
system.switch_cpus.iq.fu_full::SimdFloatMisc            0      0.00%    100.00% # attempts to use FU when none available
system.switch_cpus.iq.fu_full::SimdFloatMult            0      0.00%    100.00% # attempts to use FU when none available
system.switch_cpus.iq.fu_full::SimdFloatMultAcc            0      0.00%    100.00% # attempts to use FU when none available
system.switch_cpus.iq.fu_full::SimdFloatSqrt            0      0.00%    100.00% # attempts to use FU when none available
system.switch_cpus.iq.fu_full::SimdReduceAdd            0      0.00%    100.00% # attempts to use FU when none available
system.switch_cpus.iq.fu_full::SimdReduceAlu            0      0.00%    100.00% # attempts to use FU when none available
system.switch_cpus.iq.fu_full::SimdReduceCmp            0      0.00%    100.00% # attempts to use FU when none available
system.switch_cpus.iq.fu_full::SimdFloatReduceAdd            0      0.00%    100.00% # attempts to use FU when none available
system.switch_cpus.iq.fu_full::SimdFloatReduceCmp            0      0.00%    100.00% # attempts to use FU when none available
system.switch_cpus.iq.fu_full::SimdAes              0      0.00%    100.00% # attempts to use FU when none available
system.switch_cpus.iq.fu_full::SimdAesMix            0      0.00%    100.00% # attempts to use FU when none available
system.switch_cpus.iq.fu_full::SimdSha1Hash            0      0.00%    100.00% # attempts to use FU when none available
system.switch_cpus.iq.fu_full::SimdSha1Hash2            0      0.00%    100.00% # attempts to use FU when none available
system.switch_cpus.iq.fu_full::SimdSha256Hash            0      0.00%    100.00% # attempts to use FU when none available
system.switch_cpus.iq.fu_full::SimdSha256Hash2            0      0.00%    100.00% # attempts to use FU when none available
system.switch_cpus.iq.fu_full::SimdShaSigma2            0      0.00%    100.00% # attempts to use FU when none available
system.switch_cpus.iq.fu_full::SimdShaSigma3            0      0.00%    100.00% # attempts to use FU when none available
system.switch_cpus.iq.fu_full::SimdPredAlu            0      0.00%    100.00% # attempts to use FU when none available
system.switch_cpus.iq.fu_full::MemRead              0      0.00%    100.00% # attempts to use FU when none available
system.switch_cpus.iq.fu_full::MemWrite             0      0.00%    100.00% # attempts to use FU when none available
system.switch_cpus.iq.fu_full::FloatMemRead            0      0.00%    100.00% # attempts to use FU when none available
system.switch_cpus.iq.fu_full::FloatMemWrite            0      0.00%    100.00% # attempts to use FU when none available
system.switch_cpus.iq.fu_full::IprAccess            0      0.00%    100.00% # attempts to use FU when none available
system.switch_cpus.iq.fu_full::InstPrefetch            0      0.00%    100.00% # attempts to use FU when none available
system.switch_cpus.iq.int_alu_accesses           1257                       # Number of integer alu accesses
system.switch_cpus.iq.int_inst_queue_reads       643548                       # Number of integer instruction queue reads
system.switch_cpus.iq.int_inst_queue_wakeup_accesses         1068                       # Number of integer instruction queue wakeup accesses
system.switch_cpus.iq.int_inst_queue_writes         2379                       # Number of integer instruction queue writes
system.switch_cpus.iq.iqInstsAdded               1441                       # Number of instructions added to the IQ (excludes non-spec)
system.switch_cpus.iq.iqInstsIssued              1261                       # Number of instructions issued
system.switch_cpus.iq.iqNonSpecInstsAdded           64                       # Number of non-speculative instructions added to the IQ
system.switch_cpus.iq.iqSquashedInstsExamined          873                       # Number of squashed instructions iterated over during squash; mainly for profiling
system.switch_cpus.iq.iqSquashedInstsIssued            4                       # Number of squashed instructions issued
system.switch_cpus.iq.iqSquashedOperandsExamined         1084                       # Number of squashed operands that are examined and possibly removed from graph
system.switch_cpus.iq.issued_per_cycle::samples       641007                       # Number of insts issued each cycle
system.switch_cpus.iq.issued_per_cycle::mean     0.001967                       # Number of insts issued each cycle
system.switch_cpus.iq.issued_per_cycle::stdev     0.097364                       # Number of insts issued each cycle
system.switch_cpus.iq.issued_per_cycle::underflows            0      0.00%      0.00% # Number of insts issued each cycle
system.switch_cpus.iq.issued_per_cycle::0       640639     99.94%     99.94% # Number of insts issued each cycle
system.switch_cpus.iq.issued_per_cycle::1          111      0.02%     99.96% # Number of insts issued each cycle
system.switch_cpus.iq.issued_per_cycle::2           47      0.01%     99.97% # Number of insts issued each cycle
system.switch_cpus.iq.issued_per_cycle::3           48      0.01%     99.97% # Number of insts issued each cycle
system.switch_cpus.iq.issued_per_cycle::4           26      0.00%     99.98% # Number of insts issued each cycle
system.switch_cpus.iq.issued_per_cycle::5           57      0.01%     99.99% # Number of insts issued each cycle
system.switch_cpus.iq.issued_per_cycle::6           43      0.01%     99.99% # Number of insts issued each cycle
system.switch_cpus.iq.issued_per_cycle::7           23      0.00%    100.00% # Number of insts issued each cycle
system.switch_cpus.iq.issued_per_cycle::8           13      0.00%    100.00% # Number of insts issued each cycle
system.switch_cpus.iq.issued_per_cycle::overflows            0      0.00%    100.00% # Number of insts issued each cycle
system.switch_cpus.iq.issued_per_cycle::min_value            0                       # Number of insts issued each cycle
system.switch_cpus.iq.issued_per_cycle::max_value            8                       # Number of insts issued each cycle
system.switch_cpus.iq.issued_per_cycle::total       641007                       # Number of insts issued each cycle
system.switch_cpus.iq.rate                   0.001962                       # Inst issue rate
system.switch_cpus.iq.vec_alu_accesses              0                       # Number of vector alu accesses
system.switch_cpus.iq.vec_inst_queue_reads            0                       # Number of vector instruction queue reads
system.switch_cpus.iq.vec_inst_queue_wakeup_accesses            0                       # Number of vector instruction queue wakeup accesses
system.switch_cpus.iq.vec_inst_queue_writes            0                       # Number of vector instruction queue writes
system.switch_cpus.itb.rdAccesses                   0                       # TLB accesses on read requests
system.switch_cpus.itb.rdMisses                     0                       # TLB misses on read requests
system.switch_cpus.itb.wrAccesses                 250                       # TLB accesses on write requests
system.switch_cpus.itb.wrMisses                    19                       # TLB misses on write requests
system.switch_cpus.memDep0.conflictingLoads            0                       # Number of conflicting loads.
system.switch_cpus.memDep0.conflictingStores            0                       # Number of conflicting stores.
system.switch_cpus.memDep0.insertedLoads          229                       # Number of loads inserted to the mem dependence unit.
system.switch_cpus.memDep0.insertedStores          110                       # Number of stores inserted to the mem dependence unit.
system.switch_cpus.misc_regfile_reads             491                       # number of misc regfile reads
system.switch_cpus.numCycles                   642552                       # number of cpu cycles simulated
system.switch_cpus.numWorkItemsCompleted            0                       # number of work items this cpu completed
system.switch_cpus.numWorkItemsStarted              0                       # number of work items this cpu started
system.switch_cpus.rename.BlockCycles              90                       # Number of cycles rename is blocking
system.switch_cpus.rename.CommittedMaps           669                       # Number of HB maps that are committed
system.switch_cpus.rename.IdleCycles              690                       # Number of cycles rename is idle
system.switch_cpus.rename.RenameLookups          3931                       # Number of register rename lookups that rename has made
system.switch_cpus.rename.RenamedInsts           1718                       # Number of instructions processed by rename
system.switch_cpus.rename.RenamedOperands         1791                       # Number of destination operands rename has renamed
system.switch_cpus.rename.RunCycles               301                       # Number of cycles rename is running
system.switch_cpus.rename.SquashCycles            103                       # Number of cycles rename is squashing
system.switch_cpus.rename.UnblockCycles             2                       # Number of cycles rename is unblocking
system.switch_cpus.rename.UndoneMaps             1122                       # Number of HB maps that are undone due to squashing
system.switch_cpus.rename.int_rename_lookups         2493                       # Number of integer rename lookups
system.switch_cpus.rename.serializeStallCycles       639819                       # count of cycles rename stalled for serializing inst
system.switch_cpus.rename.serializingInsts           64                       # count of serializing insts renamed
system.switch_cpus.rename.skidInsts               472                       # count of insts added to the skid buffer
system.switch_cpus.rename.tempSerializingInsts           64                       # count of temporary serializing insts renamed
system.switch_cpus.rob.rob_reads                 2992                       # The number of ROB reads
system.switch_cpus.rob.rob_writes                3202                       # The number of ROB writes
system.switch_cpus.timesIdled                      12                       # Number of times that the entire CPU went into an idle state and unscheduled itself
system.tol2bus.snoop_filter.hit_multi_requests            0                       # Number of requests hitting in the snoop filter with multiple (>1) holders of the requested data.
system.tol2bus.snoop_filter.hit_multi_snoops            0                       # Number of snoops hitting in the snoop filter with multiple (>1) holders of the requested data.
system.tol2bus.snoop_filter.hit_single_requests           20                       # Number of requests hitting in the snoop filter with a single holder of the requested data.
system.tol2bus.snoop_filter.hit_single_snoops            1                       # Number of snoops hitting in the snoop filter with a single holder of the requested data.
system.tol2bus.snoop_filter.tot_requests           40                       # Total number of requests made to the snoop filter.
system.tol2bus.snoop_filter.tot_snoops              1                       # Total number of snoops made to the snoop filter.
system.membus.pwrStateResidencyTicks::UNDEFINED 139527153497716992                       # Cumulative time (in ticks) in various power states
system.membus.trans_dist::ReadResp                 20                       # Transaction distribution
system.membus.trans_dist::WritebackDirty            3                       # Transaction distribution
system.membus.trans_dist::CleanEvict                8                       # Transaction distribution
system.membus.trans_dist::ReadSharedReq            20                       # Transaction distribution
system.membus.pkt_count_system.l2.mem_side::system.mem_ctrls.port           51                       # Packet count per connected master and slave (bytes)
system.membus.pkt_count_system.l2.mem_side::total           51                       # Packet count per connected master and slave (bytes)
system.membus.pkt_count::total                     51                       # Packet count per connected master and slave (bytes)
system.membus.pkt_size_system.l2.mem_side::system.mem_ctrls.port         1472                       # Cumulative packet size per connected master and slave (bytes)
system.membus.pkt_size_system.l2.mem_side::total         1472                       # Cumulative packet size per connected master and slave (bytes)
system.membus.pkt_size::total                    1472                       # Cumulative packet size per connected master and slave (bytes)
system.membus.snoops                                0                       # Total snoops (count)
system.membus.snoopTraffic                          0                       # Total snoop traffic (bytes)
system.membus.snoop_fanout::samples                20                       # Request fanout histogram
system.membus.snoop_fanout::mean                    0                       # Request fanout histogram
system.membus.snoop_fanout::stdev                   0                       # Request fanout histogram
system.membus.snoop_fanout::underflows              0      0.00%      0.00% # Request fanout histogram
system.membus.snoop_fanout::0                      20    100.00%    100.00% # Request fanout histogram
system.membus.snoop_fanout::1                       0      0.00%    100.00% # Request fanout histogram
system.membus.snoop_fanout::overflows               0      0.00%    100.00% # Request fanout histogram
system.membus.snoop_fanout::min_value               0                       # Request fanout histogram
system.membus.snoop_fanout::max_value               0                       # Request fanout histogram
system.membus.snoop_fanout::total                  20                       # Request fanout histogram
system.membus.reqLayer2.occupancy               48000                       # Layer occupancy (ticks)
system.membus.reqLayer2.utilization               0.0                       # Layer utilization (%)
system.membus.respLayer1.occupancy             106000                       # Layer occupancy (ticks)
system.membus.respLayer1.utilization              0.0                       # Layer utilization (%)
system.switch_cpus.pwrStateResidencyTicks::OFF 139527153497716992                       # Cumulative time (in ticks) in various power states
system.switch_cpus.dtb.walker.pwrStateResidencyTicks::UNDEFINED 139527153497716992                       # Cumulative time (in ticks) in various power states
system.switch_cpus.itb.walker.pwrStateResidencyTicks::UNDEFINED 139527153497716992                       # Cumulative time (in ticks) in various power states
system.tol2bus.pwrStateResidencyTicks::UNDEFINED 139527153497716992                       # Cumulative time (in ticks) in various power states
system.tol2bus.trans_dist::ReadResp                20                       # Transaction distribution
system.tol2bus.trans_dist::WritebackDirty            4                       # Transaction distribution
system.tol2bus.trans_dist::WritebackClean           19                       # Transaction distribution
system.tol2bus.trans_dist::CleanEvict               9                       # Transaction distribution
system.tol2bus.trans_dist::ReadCleanReq            19                       # Transaction distribution
system.tol2bus.trans_dist::ReadSharedReq            1                       # Transaction distribution
system.tol2bus.pkt_count_system.cpu.icache.mem_side::system.l2.cpu_side           57                       # Packet count per connected master and slave (bytes)
system.tol2bus.pkt_count_system.cpu.dcache.mem_side::system.l2.cpu_side            3                       # Packet count per connected master and slave (bytes)
system.tol2bus.pkt_count::total                    60                       # Packet count per connected master and slave (bytes)
system.tol2bus.pkt_size_system.cpu.icache.mem_side::system.l2.cpu_side         2432                       # Cumulative packet size per connected master and slave (bytes)
system.tol2bus.pkt_size_system.cpu.dcache.mem_side::system.l2.cpu_side          128                       # Cumulative packet size per connected master and slave (bytes)
system.tol2bus.pkt_size::total                   2560                       # Cumulative packet size per connected master and slave (bytes)
system.tol2bus.snoops                              12                       # Total snoops (count)
system.tol2bus.snoopTraffic                       192                       # Total snoop traffic (bytes)
system.tol2bus.snoop_fanout::samples               32                       # Request fanout histogram
system.tol2bus.snoop_fanout::mean            0.031250                       # Request fanout histogram
system.tol2bus.snoop_fanout::stdev           0.176777                       # Request fanout histogram
system.tol2bus.snoop_fanout::underflows             0      0.00%      0.00% # Request fanout histogram
system.tol2bus.snoop_fanout::0                     31     96.88%     96.88% # Request fanout histogram
system.tol2bus.snoop_fanout::1                      1      3.12%    100.00% # Request fanout histogram
system.tol2bus.snoop_fanout::2                      0      0.00%    100.00% # Request fanout histogram
system.tol2bus.snoop_fanout::3                      0      0.00%    100.00% # Request fanout histogram
system.tol2bus.snoop_fanout::4                      0      0.00%    100.00% # Request fanout histogram
system.tol2bus.snoop_fanout::overflows              0      0.00%    100.00% # Request fanout histogram
system.tol2bus.snoop_fanout::min_value              0                       # Request fanout histogram
system.tol2bus.snoop_fanout::max_value              1                       # Request fanout histogram
system.tol2bus.snoop_fanout::total                 32                       # Request fanout histogram
system.tol2bus.reqLayer0.occupancy              40000                       # Layer occupancy (ticks)
system.tol2bus.reqLayer0.utilization              0.0                       # Layer utilization (%)
system.tol2bus.respLayer1.occupancy              1500                       # Layer occupancy (ticks)
system.tol2bus.respLayer1.utilization             0.0                       # Layer utilization (%)
system.tol2bus.respLayer0.occupancy             28500                       # Layer occupancy (ticks)
system.tol2bus.respLayer0.utilization             0.0                       # Layer utilization (%)
system.voltage_domain.voltage                       1                       # Voltage in Volts
system.clk_domain.clock                          1000                       # Clock period in ticks
system.l2.pwrStateResidencyTicks::UNDEFINED 139527153497716992                       # Cumulative time (in ticks) in various power states
system.l2.demand_misses::.switch_cpus.inst           19                       # number of demand (read+write) misses
system.l2.demand_misses::.switch_cpus.data            1                       # number of demand (read+write) misses
system.l2.demand_misses::total                     20                       # number of demand (read+write) misses
system.l2.overall_misses::.switch_cpus.inst           19                       # number of overall misses
system.l2.overall_misses::.switch_cpus.data            1                       # number of overall misses
system.l2.overall_misses::total                    20                       # number of overall misses
system.l2.demand_miss_latency::.switch_cpus.inst      1429500                       # number of demand (read+write) miss cycles
system.l2.demand_miss_latency::.switch_cpus.data        83500                       # number of demand (read+write) miss cycles
system.l2.demand_miss_latency::total          1513000                       # number of demand (read+write) miss cycles
system.l2.overall_miss_latency::.switch_cpus.inst      1429500                       # number of overall miss cycles
system.l2.overall_miss_latency::.switch_cpus.data        83500                       # number of overall miss cycles
system.l2.overall_miss_latency::total         1513000                       # number of overall miss cycles
system.l2.demand_accesses::.switch_cpus.inst           19                       # number of demand (read+write) accesses
system.l2.demand_accesses::.switch_cpus.data            1                       # number of demand (read+write) accesses
system.l2.demand_accesses::total                   20                       # number of demand (read+write) accesses
system.l2.overall_accesses::.switch_cpus.inst           19                       # number of overall (read+write) accesses
system.l2.overall_accesses::.switch_cpus.data            1                       # number of overall (read+write) accesses
system.l2.overall_accesses::total                  20                       # number of overall (read+write) accesses
system.l2.demand_miss_rate::.switch_cpus.inst            1                       # miss rate for demand accesses
system.l2.demand_miss_rate::.switch_cpus.data            1                       # miss rate for demand accesses
system.l2.demand_miss_rate::total                   1                       # miss rate for demand accesses
system.l2.overall_miss_rate::.switch_cpus.inst            1                       # miss rate for overall accesses
system.l2.overall_miss_rate::.switch_cpus.data            1                       # miss rate for overall accesses
system.l2.overall_miss_rate::total                  1                       # miss rate for overall accesses
system.l2.demand_avg_miss_latency::.switch_cpus.inst 75236.842105                       # average overall miss latency
system.l2.demand_avg_miss_latency::.switch_cpus.data        83500                       # average overall miss latency
system.l2.demand_avg_miss_latency::total        75650                       # average overall miss latency
system.l2.overall_avg_miss_latency::.switch_cpus.inst 75236.842105                       # average overall miss latency
system.l2.overall_avg_miss_latency::.switch_cpus.data        83500                       # average overall miss latency
system.l2.overall_avg_miss_latency::total        75650                       # average overall miss latency
system.l2.blocked_cycles::no_mshrs                  0                       # number of cycles access was blocked
system.l2.blocked_cycles::no_targets                0                       # number of cycles access was blocked
system.l2.blocked::no_mshrs                         0                       # number of cycles access was blocked
system.l2.blocked::no_targets                       0                       # number of cycles access was blocked
system.l2.avg_blocked_cycles::no_mshrs            nan                       # average number of cycles each access was blocked
system.l2.avg_blocked_cycles::no_targets          nan                       # average number of cycles each access was blocked
system.l2.writebacks::.writebacks                   3                       # number of writebacks
system.l2.writebacks::total                         3                       # number of writebacks
system.l2.demand_mshr_misses::.switch_cpus.inst           19                       # number of demand (read+write) MSHR misses
system.l2.demand_mshr_misses::.switch_cpus.data            1                       # number of demand (read+write) MSHR misses
system.l2.demand_mshr_misses::total                20                       # number of demand (read+write) MSHR misses
system.l2.overall_mshr_misses::.switch_cpus.inst           19                       # number of overall MSHR misses
system.l2.overall_mshr_misses::.switch_cpus.data            1                       # number of overall MSHR misses
system.l2.overall_mshr_misses::total               20                       # number of overall MSHR misses
system.l2.demand_mshr_miss_latency::.switch_cpus.inst      1239500                       # number of demand (read+write) MSHR miss cycles
system.l2.demand_mshr_miss_latency::.switch_cpus.data        73500                       # number of demand (read+write) MSHR miss cycles
system.l2.demand_mshr_miss_latency::total      1313000                       # number of demand (read+write) MSHR miss cycles
system.l2.overall_mshr_miss_latency::.switch_cpus.inst      1239500                       # number of overall MSHR miss cycles
system.l2.overall_mshr_miss_latency::.switch_cpus.data        73500                       # number of overall MSHR miss cycles
system.l2.overall_mshr_miss_latency::total      1313000                       # number of overall MSHR miss cycles
system.l2.demand_mshr_miss_rate::.switch_cpus.inst            1                       # mshr miss rate for demand accesses
system.l2.demand_mshr_miss_rate::.switch_cpus.data            1                       # mshr miss rate for demand accesses
system.l2.demand_mshr_miss_rate::total              1                       # mshr miss rate for demand accesses
system.l2.overall_mshr_miss_rate::.switch_cpus.inst            1                       # mshr miss rate for overall accesses
system.l2.overall_mshr_miss_rate::.switch_cpus.data            1                       # mshr miss rate for overall accesses
system.l2.overall_mshr_miss_rate::total             1                       # mshr miss rate for overall accesses
system.l2.demand_avg_mshr_miss_latency::.switch_cpus.inst 65236.842105                       # average overall mshr miss latency
system.l2.demand_avg_mshr_miss_latency::.switch_cpus.data        73500                       # average overall mshr miss latency
system.l2.demand_avg_mshr_miss_latency::total        65650                       # average overall mshr miss latency
system.l2.overall_avg_mshr_miss_latency::.switch_cpus.inst 65236.842105                       # average overall mshr miss latency
system.l2.overall_avg_mshr_miss_latency::.switch_cpus.data        73500                       # average overall mshr miss latency
system.l2.overall_avg_mshr_miss_latency::total        65650                       # average overall mshr miss latency
system.l2.replacements                             12                       # number of replacements
system.l2.WritebackDirty_hits::.writebacks            1                       # number of WritebackDirty hits
system.l2.WritebackDirty_hits::total                1                       # number of WritebackDirty hits
system.l2.WritebackDirty_accesses::.writebacks            1                       # number of WritebackDirty accesses(hits+misses)
system.l2.WritebackDirty_accesses::total            1                       # number of WritebackDirty accesses(hits+misses)
system.l2.WritebackClean_hits::.writebacks           19                       # number of WritebackClean hits
system.l2.WritebackClean_hits::total               19                       # number of WritebackClean hits
system.l2.WritebackClean_accesses::.writebacks           19                       # number of WritebackClean accesses(hits+misses)
system.l2.WritebackClean_accesses::total           19                       # number of WritebackClean accesses(hits+misses)
system.l2.ReadCleanReq_misses::.switch_cpus.inst           19                       # number of ReadCleanReq misses
system.l2.ReadCleanReq_misses::total               19                       # number of ReadCleanReq misses
system.l2.ReadCleanReq_miss_latency::.switch_cpus.inst      1429500                       # number of ReadCleanReq miss cycles
system.l2.ReadCleanReq_miss_latency::total      1429500                       # number of ReadCleanReq miss cycles
system.l2.ReadCleanReq_accesses::.switch_cpus.inst           19                       # number of ReadCleanReq accesses(hits+misses)
system.l2.ReadCleanReq_accesses::total             19                       # number of ReadCleanReq accesses(hits+misses)
system.l2.ReadCleanReq_miss_rate::.switch_cpus.inst            1                       # miss rate for ReadCleanReq accesses
system.l2.ReadCleanReq_miss_rate::total             1                       # miss rate for ReadCleanReq accesses
system.l2.ReadCleanReq_avg_miss_latency::.switch_cpus.inst 75236.842105                       # average ReadCleanReq miss latency
system.l2.ReadCleanReq_avg_miss_latency::total 75236.842105                       # average ReadCleanReq miss latency
system.l2.ReadCleanReq_mshr_misses::.switch_cpus.inst           19                       # number of ReadCleanReq MSHR misses
system.l2.ReadCleanReq_mshr_misses::total           19                       # number of ReadCleanReq MSHR misses
system.l2.ReadCleanReq_mshr_miss_latency::.switch_cpus.inst      1239500                       # number of ReadCleanReq MSHR miss cycles
system.l2.ReadCleanReq_mshr_miss_latency::total      1239500                       # number of ReadCleanReq MSHR miss cycles
system.l2.ReadCleanReq_mshr_miss_rate::.switch_cpus.inst            1                       # mshr miss rate for ReadCleanReq accesses
system.l2.ReadCleanReq_mshr_miss_rate::total            1                       # mshr miss rate for ReadCleanReq accesses
system.l2.ReadCleanReq_avg_mshr_miss_latency::.switch_cpus.inst 65236.842105                       # average ReadCleanReq mshr miss latency
system.l2.ReadCleanReq_avg_mshr_miss_latency::total 65236.842105                       # average ReadCleanReq mshr miss latency
system.l2.ReadSharedReq_misses::.switch_cpus.data            1                       # number of ReadSharedReq misses
system.l2.ReadSharedReq_misses::total               1                       # number of ReadSharedReq misses
system.l2.ReadSharedReq_miss_latency::.switch_cpus.data        83500                       # number of ReadSharedReq miss cycles
system.l2.ReadSharedReq_miss_latency::total        83500                       # number of ReadSharedReq miss cycles
system.l2.ReadSharedReq_accesses::.switch_cpus.data            1                       # number of ReadSharedReq accesses(hits+misses)
system.l2.ReadSharedReq_accesses::total             1                       # number of ReadSharedReq accesses(hits+misses)
system.l2.ReadSharedReq_miss_rate::.switch_cpus.data            1                       # miss rate for ReadSharedReq accesses
system.l2.ReadSharedReq_miss_rate::total            1                       # miss rate for ReadSharedReq accesses
system.l2.ReadSharedReq_avg_miss_latency::.switch_cpus.data        83500                       # average ReadSharedReq miss latency
system.l2.ReadSharedReq_avg_miss_latency::total        83500                       # average ReadSharedReq miss latency
system.l2.ReadSharedReq_mshr_misses::.switch_cpus.data            1                       # number of ReadSharedReq MSHR misses
system.l2.ReadSharedReq_mshr_misses::total            1                       # number of ReadSharedReq MSHR misses
system.l2.ReadSharedReq_mshr_miss_latency::.switch_cpus.data        73500                       # number of ReadSharedReq MSHR miss cycles
system.l2.ReadSharedReq_mshr_miss_latency::total        73500                       # number of ReadSharedReq MSHR miss cycles
system.l2.ReadSharedReq_mshr_miss_rate::.switch_cpus.data            1                       # mshr miss rate for ReadSharedReq accesses
system.l2.ReadSharedReq_mshr_miss_rate::total            1                       # mshr miss rate for ReadSharedReq accesses
system.l2.ReadSharedReq_avg_mshr_miss_latency::.switch_cpus.data        73500                       # average ReadSharedReq mshr miss latency
system.l2.ReadSharedReq_avg_mshr_miss_latency::total        73500                       # average ReadSharedReq mshr miss latency
system.l2.tags.pwrStateResidencyTicks::UNDEFINED 139527153497716992                       # Cumulative time (in ticks) in various power states
system.l2.tags.tagsinuse                   990.978560                       # Cycle average of tags in use
system.l2.tags.total_refs                        1783                       # Total number of references to valid blocks.
system.l2.tags.sampled_refs                      1003                       # Sample count of references to valid blocks.
system.l2.tags.avg_refs                      1.777667                       # Average number of references to valid blocks.
system.l2.tags.warmup_cycle                         0                       # Cycle when the warmup percentage was hit.
system.l2.tags.occ_blocks::.writebacks      43.998234                       # Average occupied blocks per requestor
system.l2.tags.occ_blocks::.cpu.inst       502.009984                       # Average occupied blocks per requestor
system.l2.tags.occ_blocks::.cpu.data       425.013054                       # Average occupied blocks per requestor
system.l2.tags.occ_blocks::.switch_cpus.inst    18.959776                       # Average occupied blocks per requestor
system.l2.tags.occ_blocks::.switch_cpus.data     0.997513                       # Average occupied blocks per requestor
system.l2.tags.occ_percent::.writebacks      0.042967                       # Average percentage of cache occupancy
system.l2.tags.occ_percent::.cpu.inst        0.490244                       # Average percentage of cache occupancy
system.l2.tags.occ_percent::.cpu.data        0.415052                       # Average percentage of cache occupancy
system.l2.tags.occ_percent::.switch_cpus.inst     0.018515                       # Average percentage of cache occupancy
system.l2.tags.occ_percent::.switch_cpus.data     0.000974                       # Average percentage of cache occupancy
system.l2.tags.occ_percent::total            0.967753                       # Average percentage of cache occupancy
system.l2.tags.occ_task_id_blocks::1024           991                       # Occupied blocks per task id
system.l2.tags.age_task_id_blocks_1024::2           21                       # Occupied blocks per task id
system.l2.tags.age_task_id_blocks_1024::4          970                       # Occupied blocks per task id
system.l2.tags.occ_task_id_percent::1024     0.967773                       # Percentage of cache occupancy per task id
system.l2.tags.tag_accesses                       341                       # Number of tag accesses
system.l2.tags.data_accesses                      341                       # Number of data accesses
system.cpu_voltage_domain.voltage                   1                       # Voltage in Volts
system.mem_ctrls.pwrStateResidencyTicks::UNDEFINED 139527153497716992                       # Cumulative time (in ticks) in various power states
system.mem_ctrls.bytes_read::.switch_cpus.inst         1216                       # Number of bytes read from this memory
system.mem_ctrls.bytes_read::.switch_cpus.data           64                       # Number of bytes read from this memory
system.mem_ctrls.bytes_read::total               1280                       # Number of bytes read from this memory
system.mem_ctrls.bytes_inst_read::.switch_cpus.inst         1216                       # Number of instructions bytes read from this memory
system.mem_ctrls.bytes_inst_read::total          1216                       # Number of instructions bytes read from this memory
[...]
system.cpu.icache.ReadReq_mshr_miss_rate::total     0.000000                       # mshr miss rate for ReadReq accesses
system.cpu.icache.ReadReq_avg_mshr_miss_latency::.switch_cpus.inst 76736.842105                       # average ReadReq mshr miss latency
system.cpu.icache.ReadReq_avg_mshr_miss_latency::total 76736.842105                       # average ReadReq mshr miss latency
system.cpu.icache.tags.pwrStateResidencyTicks::UNDEFINED 139527153497716992                       # Cumulative time (in ticks) in various power states
system.cpu.icache.tags.tagsinuse           256.000000                       # Cycle average of tags in use
system.cpu.icache.tags.total_refs          2135656279                       # Total number of references to valid blocks.
system.cpu.icache.tags.sampled_refs               767                       # Sample count of references to valid blocks.
system.cpu.icache.tags.avg_refs          2784428.003911                       # Average number of references to valid blocks.
system.cpu.icache.tags.warmup_cycle                 0                       # Cycle when the warmup percentage was hit.
system.cpu.icache.tags.occ_blocks::.cpu.inst   256.000000                       # Average occupied blocks per requestor
system.cpu.icache.tags.occ_blocks::.switch_cpus.inst     0.000000                       # Average occupied blocks per requestor
system.cpu.icache.tags.occ_percent::.cpu.inst     1.000000                       # Average percentage of cache occupancy
system.cpu.icache.tags.occ_percent::.switch_cpus.inst     0.000000                       # Average percentage of cache occupancy
system.cpu.icache.tags.occ_percent::total     1.000000                       # Average percentage of cache occupancy
system.cpu.icache.tags.occ_task_id_blocks::1024          256                       # Occupied blocks per task id
system.cpu.icache.tags.age_task_id_blocks_1024::2           19                       # Occupied blocks per task id
system.cpu.icache.tags.age_task_id_blocks_1024::4          237                       # Occupied blocks per task id
system.cpu.icache.tags.occ_task_id_percent::1024            1                       # Percentage of cache occupancy per task id
system.cpu.icache.tags.tag_accesses       55810920887                       # Number of tag accesses
system.cpu.icache.tags.data_accesses      55810920887                       # Number of data accesses
system.cpu.dtb.walker.pwrStateResidencyTicks::UNDEFINED 139527153497716992                       # Cumulative time (in ticks) in various power states
system.cpu.interrupts.clk_domain.clock           8000                       # Clock period in ticks
system.cpu.itb_walker_cache.pwrStateResidencyTicks::UNDEFINED 139527153497716992                       # Cumulative time (in ticks) in various power states
system.cpu.itb_walker_cache.blocked_cycles::no_mshrs            0                       # number of cycles access was blocked
system.cpu.itb_walker_cache.blocked_cycles::no_targets            0                       # number of cycles access was blocked
system.cpu.itb_walker_cache.blocked::no_mshrs            0                       # number of cycles access was blocked
system.cpu.itb_walker_cache.blocked::no_targets            0                       # number of cycles access was blocked
system.cpu.itb_walker_cache.avg_blocked_cycles::no_mshrs          nan                       # average number of cycles each access was blocked
system.cpu.itb_walker_cache.avg_blocked_cycles::no_targets          nan                       # average number of cycles each access was blocked
system.cpu.itb_walker_cache.replacements            0                       # number of replacements
system.cpu.itb_walker_cache.tags.pwrStateResidencyTicks::UNDEFINED 139527153497716992                       # Cumulative time (in ticks) in various power states
system.cpu.itb_walker_cache.tags.tagsinuse            0                       # Cycle average of tags in use
system.cpu.itb_walker_cache.tags.total_refs            0                       # Total number of references to valid blocks.
system.cpu.itb_walker_cache.tags.sampled_refs            0                       # Sample count of references to valid blocks.
system.cpu.itb_walker_cache.tags.avg_refs          nan                       # Average number of references to valid blocks.
system.cpu.itb_walker_cache.tags.warmup_cycle            0                       # Cycle when the warmup percentage was hit.
system.cpu.itb_walker_cache.tags.tag_accesses            0                       # Number of tag accesses
system.cpu.itb_walker_cache.tags.data_accesses            0                       # Number of data accesses
system.cpu.itb.walker.pwrStateResidencyTicks::UNDEFINED 139527153497716992                       # Cumulative time (in ticks) in various power states
system.cpu.dtb_walker_cache.pwrStateResidencyTicks::UNDEFINED 139527153497716992                       # Cumulative time (in ticks) in various power states
system.cpu.dtb_walker_cache.blocked_cycles::no_mshrs            0                       # number of cycles access was blocked
system.cpu.dtb_walker_cache.blocked_cycles::no_targets            0                       # number of cycles access was blocked
system.cpu.dtb_walker_cache.blocked::no_mshrs            0                       # number of cycles access was blocked
system.cpu.dtb_walker_cache.blocked::no_targets            0                       # number of cycles access was blocked
system.cpu.dtb_walker_cache.avg_blocked_cycles::no_mshrs          nan                       # average number of cycles each access was blocked
system.cpu.dtb_walker_cache.avg_blocked_cycles::no_targets          nan                       # average number of cycles each access was blocked
system.cpu.dtb_walker_cache.replacements            0                       # number of replacements
system.cpu.dtb_walker_cache.tags.pwrStateResidencyTicks::UNDEFINED 139527153497716992                       # Cumulative time (in ticks) in various power states
system.cpu.dtb_walker_cache.tags.tagsinuse            0                       # Cycle average of tags in use
system.cpu.dtb_walker_cache.tags.total_refs            0                       # Total number of references to valid blocks.
system.cpu.dtb_walker_cache.tags.sampled_refs            0                       # Sample count of references to valid blocks.
system.cpu.dtb_walker_cache.tags.avg_refs          nan                       # Average number of references to valid blocks.
system.cpu.dtb_walker_cache.tags.warmup_cycle            0                       # Cycle when the warmup percentage was hit.
system.cpu.dtb_walker_cache.tags.tag_accesses            0                       # Number of tag accesses
system.cpu.dtb_walker_cache.tags.data_accesses            0                       # Number of data accesses
system.cpu.dcache.pwrStateResidencyTicks::UNDEFINED 139527153497716992                       # Cumulative time (in ticks) in various power states
system.cpu.dcache.demand_hits::.cpu.data        10001                       # number of demand (read+write) hits
system.cpu.dcache.demand_hits::.switch_cpus.data          225                       # number of demand (read+write) hits
system.cpu.dcache.demand_hits::total            10226                       # number of demand (read+write) hits
system.cpu.dcache.overall_hits::.cpu.data        10001                       # number of overall hits
system.cpu.dcache.overall_hits::.switch_cpus.data          225                       # number of overall hits
system.cpu.dcache.overall_hits::total           10226                       # number of overall hits
system.cpu.dcache.demand_misses::.cpu.data          589                       # number of demand (read+write) misses
system.cpu.dcache.demand_misses::.switch_cpus.data            1                       # number of demand (read+write) misses
system.cpu.dcache.demand_misses::total            590                       # number of demand (read+write) misses
system.cpu.dcache.overall_misses::.cpu.data          589                       # number of overall misses
system.cpu.dcache.overall_misses::.switch_cpus.data            1                       # number of overall misses
system.cpu.dcache.overall_misses::total           590                       # number of overall misses
system.cpu.dcache.demand_miss_latency::.switch_cpus.data        86000                       # number of demand (read+write) miss cycles
system.cpu.dcache.demand_miss_latency::total        86000                       # number of demand (read+write) miss cycles
system.cpu.dcache.overall_miss_latency::.switch_cpus.data        86000                       # number of overall miss cycles
system.cpu.dcache.overall_miss_latency::total        86000                       # number of overall miss cycles
system.cpu.dcache.demand_accesses::.cpu.data        10590                       # number of demand (read+write) accesses
system.cpu.dcache.demand_accesses::.switch_cpus.data          226                       # number of demand (read+write) accesses
system.cpu.dcache.demand_accesses::total        10816                       # number of demand (read+write) accesses
system.cpu.dcache.overall_accesses::.cpu.data        10590                       # number of overall (read+write) accesses
system.cpu.dcache.overall_accesses::.switch_cpus.data          226                       # number of overall (read+write) accesses
system.cpu.dcache.overall_accesses::total        10816                       # number of overall (read+write) accesses
system.cpu.dcache.demand_miss_rate::.cpu.data     0.055619                       # miss rate for demand accesses
system.cpu.dcache.demand_miss_rate::.switch_cpus.data     0.004425                       # miss rate for demand accesses
system.cpu.dcache.demand_miss_rate::total     0.054549                       # miss rate for demand accesses
system.cpu.dcache.overall_miss_rate::.cpu.data     0.055619                       # miss rate for overall accesses
system.cpu.dcache.overall_miss_rate::.switch_cpus.data     0.004425                       # miss rate for overall accesses
system.cpu.dcache.overall_miss_rate::total     0.054549                       # miss rate for overall accesses
system.cpu.dcache.demand_avg_miss_latency::.switch_cpus.data        86000                       # average overall miss latency
system.cpu.dcache.demand_avg_miss_latency::total   145.762712                       # average overall miss latency
system.cpu.dcache.overall_avg_miss_latency::.switch_cpus.data        86000                       # average overall miss latency
system.cpu.dcache.overall_avg_miss_latency::total   145.762712                       # average overall miss latency
system.cpu.dcache.blocked_cycles::no_mshrs            0                       # number of cycles access was blocked
system.cpu.dcache.blocked_cycles::no_targets            0                       # number of cycles access was blocked
system.cpu.dcache.blocked::no_mshrs                 0                       # number of cycles access was blocked
system.cpu.dcache.blocked::no_targets               0                       # number of cycles access was blocked
system.cpu.dcache.avg_blocked_cycles::no_mshrs          nan                       # average number of cycles each access was blocked
system.cpu.dcache.avg_blocked_cycles::no_targets          nan                       # average number of cycles each access was blocked
system.cpu.dcache.writebacks::.writebacks          250                       # number of writebacks
system.cpu.dcache.writebacks::total               250                       # number of writebacks
system.cpu.dcache.demand_mshr_misses::.switch_cpus.data            1                       # number of demand (read+write) MSHR misses
system.cpu.dcache.demand_mshr_misses::total            1                       # number of demand (read+write) MSHR misses
system.cpu.dcache.overall_mshr_misses::.switch_cpus.data            1                       # number of overall MSHR misses
system.cpu.dcache.overall_mshr_misses::total            1                       # number of overall MSHR misses
system.cpu.dcache.demand_mshr_miss_latency::.switch_cpus.data        85000                       # number of demand (read+write) MSHR miss cycles
system.cpu.dcache.demand_mshr_miss_latency::total        85000                       # number of demand (read+write) MSHR miss cycles
system.cpu.dcache.overall_mshr_miss_latency::.switch_cpus.data        85000                       # number of overall MSHR miss cycles
system.cpu.dcache.overall_mshr_miss_latency::total        85000                       # number of overall MSHR miss cycles
system.cpu.dcache.demand_mshr_miss_rate::.switch_cpus.data     0.004425                       # mshr miss rate for demand accesses
system.cpu.dcache.demand_mshr_miss_rate::total     0.000092                       # mshr miss rate for demand accesses
system.cpu.dcache.overall_mshr_miss_rate::.switch_cpus.data     0.004425                       # mshr miss rate for overall accesses
system.cpu.dcache.overall_mshr_miss_rate::total     0.000092                       # mshr miss rate for overall accesses
system.cpu.dcache.demand_avg_mshr_miss_latency::.switch_cpus.data        85000                       # average overall mshr miss latency
system.cpu.dcache.demand_avg_mshr_miss_latency::total        85000                       # average overall mshr miss latency
system.cpu.dcache.overall_avg_mshr_miss_latency::.switch_cpus.data        85000                       # average overall mshr miss latency
system.cpu.dcache.overall_avg_mshr_miss_latency::total        85000                       # average overall mshr miss latency
system.cpu.dcache.replacements                    334                       # number of replacements
system.cpu.dcache.ReadReq_hits::.cpu.data         4225                       # number of ReadReq hits
system.cpu.dcache.ReadReq_hits::.switch_cpus.data          164                       # number of ReadReq hits
system.cpu.dcache.ReadReq_hits::total            4389                       # number of ReadReq hits
system.cpu.dcache.ReadReq_misses::.cpu.data          181                       # number of ReadReq misses
system.cpu.dcache.ReadReq_misses::.switch_cpus.data            1                       # number of ReadReq misses
system.cpu.dcache.ReadReq_misses::total           182                       # number of ReadReq misses
system.cpu.dcache.ReadReq_miss_latency::.switch_cpus.data        86000                       # number of ReadReq miss cycles
system.cpu.dcache.ReadReq_miss_latency::total        86000                       # number of ReadReq miss cycles
system.cpu.dcache.ReadReq_accesses::.cpu.data         4406                       # number of ReadReq accesses(hits+misses)
system.cpu.dcache.ReadReq_accesses::.switch_cpus.data          165                       # number of ReadReq accesses(hits+misses)
system.cpu.dcache.ReadReq_accesses::total         4571                       # number of ReadReq accesses(hits+misses)
system.cpu.dcache.ReadReq_miss_rate::.cpu.data     0.041080                       # miss rate for ReadReq accesses
system.cpu.dcache.ReadReq_miss_rate::.switch_cpus.data     0.006061                       # miss rate for ReadReq accesses
system.cpu.dcache.ReadReq_miss_rate::total     0.039816                       # miss rate for ReadReq accesses
system.cpu.dcache.ReadReq_avg_miss_latency::.switch_cpus.data        86000                       # average ReadReq miss latency
system.cpu.dcache.ReadReq_avg_miss_latency::total   472.527473                       # average ReadReq miss latency
system.cpu.dcache.ReadReq_mshr_misses::.switch_cpus.data            1                       # number of ReadReq MSHR misses
system.cpu.dcache.ReadReq_mshr_misses::total            1                       # number of ReadReq MSHR misses
system.cpu.dcache.ReadReq_mshr_miss_latency::.switch_cpus.data        85000                       # number of ReadReq MSHR miss cycles
system.cpu.dcache.ReadReq_mshr_miss_latency::total        85000                       # number of ReadReq MSHR miss cycles
system.cpu.dcache.ReadReq_mshr_miss_rate::.switch_cpus.data     0.006061                       # mshr miss rate for ReadReq accesses
system.cpu.dcache.ReadReq_mshr_miss_rate::total     0.000219                       # mshr miss rate for ReadReq accesses
system.cpu.dcache.ReadReq_avg_mshr_miss_latency::.switch_cpus.data        85000                       # average ReadReq mshr miss latency
system.cpu.dcache.ReadReq_avg_mshr_miss_latency::total        85000                       # average ReadReq mshr miss latency
system.cpu.dcache.WriteReq_hits::.cpu.data         5776                       # number of WriteReq hits
system.cpu.dcache.WriteReq_hits::.switch_cpus.data           61                       # number of WriteReq hits
system.cpu.dcache.WriteReq_hits::total           5837                       # number of WriteReq hits
system.cpu.dcache.WriteReq_misses::.cpu.data          408                       # number of WriteReq misses
system.cpu.dcache.WriteReq_misses::total          408                       # number of WriteReq misses
system.cpu.dcache.WriteReq_accesses::.cpu.data         6184                       # number of WriteReq accesses(hits+misses)
system.cpu.dcache.WriteReq_accesses::.switch_cpus.data           61                       # number of WriteReq accesses(hits+misses)
system.cpu.dcache.WriteReq_accesses::total         6245                       # number of WriteReq accesses(hits+misses)
system.cpu.dcache.WriteReq_miss_rate::.cpu.data     0.065977                       # miss rate for WriteReq accesses
system.cpu.dcache.WriteReq_miss_rate::total     0.065332                       # miss rate for WriteReq accesses
system.cpu.dcache.tags.pwrStateResidencyTicks::UNDEFINED 139527153497716992                       # Cumulative time (in ticks) in various power states
system.cpu.dcache.tags.tagsinuse           256.000000                       # Cycle average of tags in use
system.cpu.dcache.tags.total_refs               10816                       # Total number of references to valid blocks.
system.cpu.dcache.tags.sampled_refs               590                       # Sample count of references to valid blocks.
system.cpu.dcache.tags.avg_refs             18.332203                       # Average number of references to valid blocks.
system.cpu.dcache.tags.warmup_cycle              1000                       # Cycle when the warmup percentage was hit.
system.cpu.dcache.tags.occ_blocks::.cpu.data   256.000000                       # Average occupied blocks per requestor
system.cpu.dcache.tags.occ_blocks::.switch_cpus.data     0.000000                       # Average occupied blocks per requestor
system.cpu.dcache.tags.occ_percent::.cpu.data     1.000000                       # Average percentage of cache occupancy
system.cpu.dcache.tags.occ_percent::.switch_cpus.data     0.000000                       # Average percentage of cache occupancy
system.cpu.dcache.tags.occ_percent::total     1.000000                       # Average percentage of cache occupancy
system.cpu.dcache.tags.occ_task_id_blocks::1024          256                       # Occupied blocks per task id
system.cpu.dcache.tags.age_task_id_blocks_1024::2            1                       # Occupied blocks per task id
system.cpu.dcache.tags.age_task_id_blocks_1024::4          255                       # Occupied blocks per task id
system.cpu.dcache.tags.occ_task_id_percent::1024            1                       # Percentage of cache occupancy per task id
system.cpu.dcache.tags.tag_accesses             22222                       # Number of tag accesses
system.cpu.dcache.tags.data_accesses            22222                       # Number of data accesses

---------- End Simulation Statistics   ----------
