
---------- Begin Simulation Statistics ----------
final_tick                               2243752199500                       # Number of ticks from beginning of simulation (restored from checkpoints and never reset)
host_inst_rate                                 205455                       # Simulator instruction rate (inst/s)
host_mem_usage                                4700324                       # Number of bytes of host memory used
host_op_rate                                   424470                       # Simulator op (including micro ops) rate (op/s)
host_seconds                                  7300.87                       # Real time elapsed on the host
host_tick_rate                              145310509                       # Simulator tick rate (ticks/s)
sim_freq                                 1000000000000                       # Frequency of simulated ticks
sim_insts                                  1500000001                       # Number of instructions simulated
sim_ops                                    3099000502                       # Number of ops (including micro ops) simulated
sim_seconds                                  1.060894                       # Number of seconds simulated
sim_ticks                                1060893656500                       # Number of ticks simulated
system.cpu.committedInsts                           0                       # Number of instructions committed
system.cpu.committedOps                             0                       # Number of ops (including micro ops) committed
system.cpu.dtb.rdAccesses                           0                       # TLB accesses on read requests
system.cpu.dtb.rdMisses                             0                       # TLB misses on read requests
system.cpu.dtb.wrAccesses                           0                       # TLB accesses on write requests
system.cpu.dtb.wrMisses                             0                       # TLB misses on write requests
system.cpu.idle_fraction                            0                       # Percentage of idle cycles
system.cpu.itb.rdAccesses                           0                       # TLB accesses on read requests
system.cpu.itb.rdMisses                             0                       # TLB misses on read requests
system.cpu.itb.wrAccesses                           0                       # TLB accesses on write requests
system.cpu.itb.wrMisses                             0                       # TLB misses on write requests
system.cpu.not_idle_fraction                        1                       # Percentage of non-idle cycles
system.cpu.numCycles                                0                       # number of cpu cycles simulated
system.cpu.numWorkItemsCompleted                    0                       # number of work items this cpu completed
system.cpu.numWorkItemsStarted                      0                       # number of work items this cpu started
system.cpu.num_busy_cycles                          0                       # Number of busy cycles
system.cpu.num_conditional_control_insts            0                       # number of instructions that are conditional controls
system.cpu.num_fp_alu_accesses                      0                       # Number of float alu accesses
system.cpu.num_fp_insts                             0                       # number of float instructions
system.cpu.num_fp_register_reads                    0                       # number of times the floating registers were read
system.cpu.num_fp_register_writes                   0                       # number of times the floating registers were written
system.cpu.num_func_calls                           0                       # number of times a function call or return occured
system.cpu.num_idle_cycles                          0                       # Number of idle cycles
system.cpu.num_int_alu_accesses                     0                       # Number of integer alu accesses
system.cpu.num_int_insts                            0                       # number of integer instructions
system.cpu.num_int_register_reads                   0                       # number of times the integer registers were read
system.cpu.num_int_register_writes                  0                       # number of times the integer registers were written
system.cpu.num_load_insts                           0                       # Number of load instructions
system.cpu.num_mem_refs                             0                       # number of memory refs
system.cpu.num_store_insts                          0                       # Number of store instructions
system.cpu.num_vec_alu_accesses                     0                       # Number of vector alu accesses
system.cpu.num_vec_insts                            0                       # number of vector instructions
system.cpu.num_vec_register_reads                   0                       # number of times the vector registers were read
system.cpu.num_vec_register_writes                  0                       # number of times the vector registers were written
system.cpu.op_class::No_OpClass                     0                       # Class of executed instruction
system.cpu.op_class::IntAlu                         0                       # Class of executed instruction
system.cpu.op_class::IntMult                        0                       # Class of executed instruction
system.cpu.op_class::IntDiv                         0                       # Class of executed instruction
system.cpu.op_class::FloatAdd                       0                       # Class of executed instruction
system.cpu.op_class::FloatCmp                       0                       # Class of executed instruction
system.cpu.op_class::FloatCvt                       0                       # Class of executed instruction
system.cpu.op_class::FloatMult                      0                       # Class of executed instruction
system.cpu.op_class::FloatMultAcc                   0                       # Class of executed instruction
system.cpu.op_class::FloatDiv                       0                       # Class of executed instruction
system.cpu.op_class::FloatMisc                      0                       # Class of executed instruction
system.cpu.op_class::FloatSqrt                      0                       # Class of executed instruction
system.cpu.op_class::SimdAdd                        0                       # Class of executed instruction
system.cpu.op_class::SimdAddAcc                     0                       # Class of executed instruction
system.cpu.op_class::SimdAlu                        0                       # Class of executed instruction
system.cpu.op_class::SimdCmp                        0                       # Class of executed instruction
system.cpu.op_class::SimdCvt                        0                       # Class of executed instruction
system.cpu.op_class::SimdMisc                       0                       # Class of executed instruction
system.cpu.op_class::SimdMult                       0                       # Class of executed instruction
system.cpu.op_class::SimdMultAcc                    0                       # Class of executed instruction
system.cpu.op_class::SimdShift                      0                       # Class of executed instruction
system.cpu.op_class::SimdShiftAcc                   0                       # Class of executed instruction
system.cpu.op_class::SimdDiv                        0                       # Class of executed instruction
system.cpu.op_class::SimdSqrt                       0                       # Class of executed instruction
system.cpu.op_class::SimdFloatAdd                   0                       # Class of executed instruction
system.cpu.op_class::SimdFloatAlu                   0                       # Class of executed instruction
system.cpu.op_class::SimdFloatCmp                   0                       # Class of executed instruction
system.cpu.op_class::SimdFloatCvt                   0                       # Class of executed instruction
system.cpu.op_class::SimdFloatDiv                   0                       # Class of executed instruction
system.cpu.op_class::SimdFloatMisc                  0                       # Class of executed instruction
system.cpu.op_class::SimdFloatMult                  0                       # Class of executed instruction
system.cpu.op_class::SimdFloatMultAcc               0                       # Class of executed instruction
system.cpu.op_class::SimdFloatSqrt                  0                       # Class of executed instruction
system.cpu.op_class::SimdReduceAdd                  0                       # Class of executed instruction
system.cpu.op_class::SimdReduceAlu                  0                       # Class of executed instruction
system.cpu.op_class::SimdReduceCmp                  0                       # Class of executed instruction
system.cpu.op_class::SimdFloatReduceAdd             0                       # Class of executed instruction
system.cpu.op_class::SimdFloatReduceCmp             0                       # Class of executed instruction
system.cpu.op_class::SimdAes                        0                       # Class of executed instruction
system.cpu.op_class::SimdAesMix                     0                       # Class of executed instruction
system.cpu.op_class::SimdSha1Hash                   0                       # Class of executed instruction
system.cpu.op_class::SimdSha1Hash2                  0                       # Class of executed instruction
system.cpu.op_class::SimdSha256Hash                 0                       # Class of executed instruction
system.cpu.op_class::SimdSha256Hash2                0                       # Class of executed instruction
system.cpu.op_class::SimdShaSigma2                  0                       # Class of executed instruction
system.cpu.op_class::SimdShaSigma3                  0                       # Class of executed instruction
system.cpu.op_class::SimdPredAlu                    0                       # Class of executed instruction
system.cpu.op_class::MemRead                        0                       # Class of executed instruction
system.cpu.op_class::MemWrite                       0                       # Class of executed instruction
system.cpu.op_class::FloatMemRead                   0                       # Class of executed instruction
system.cpu.op_class::FloatMemWrite                  0                       # Class of executed instruction
system.cpu.op_class::IprAccess                      0                       # Class of executed instruction
system.cpu.op_class::InstPrefetch                   0                       # Class of executed instruction
system.cpu.op_class::total                          0                       # Class of executed instruction
system.cpu.workload.numSyscalls                   110                       # Number of system calls
system.membus.snoop_filter.hit_multi_requests            0                       # Number of requests hitting in the snoop filter with multiple (>1) holders of the requested data.
system.membus.snoop_filter.hit_multi_snoops            0                       # Number of snoops hitting in the snoop filter with multiple (>1) holders of the requested data.
system.membus.snoop_filter.hit_single_requests      4906858                       # Number of requests hitting in the snoop filter with a single holder of the requested data.
system.membus.snoop_filter.hit_single_snoops            0                       # Number of snoops hitting in the snoop filter with a single holder of the requested data.
system.membus.snoop_filter.tot_requests       9813490                       # Total number of requests made to the snoop filter.
system.membus.snoop_filter.tot_snoops               0                       # Total number of snoops made to the snoop filter.
system.switch_cpus.branchPred.BTBCorrect            0                       # Number of correct BTB predictions (this stat may not work properly.
system.switch_cpus.branchPred.BTBHitPct      0.000000                       # BTB Hit Percentage
system.switch_cpus.branchPred.BTBHits               0                       # Number of BTB hits
system.switch_cpus.branchPred.BTBLookups    199462024                       # Number of BTB lookups
system.switch_cpus.branchPred.RASInCorrect       341582                       # Number of incorrect RAS predictions.
system.switch_cpus.branchPred.condIncorrect     27975404                       # Number of conditional branches incorrect
system.switch_cpus.branchPred.condPredicted    170641011                       # Number of conditional branches predicted
system.switch_cpus.branchPred.indirectHits     44470146                       # Number of indirect target hits.
system.switch_cpus.branchPred.indirectLookups    199462024                       # Number of indirect predictor lookups.
system.switch_cpus.branchPred.indirectMisses    154991878                       # Number of indirect misses.
system.switch_cpus.branchPred.lookups       224685201                       # Number of BP lookups
system.switch_cpus.branchPred.usedRAS        21484857                       # Number of times the RAS was used to get a target.
system.switch_cpus.branchPredindirectMispredicted     26243110                       # Number of mispredicted indirect branches.
system.switch_cpus.cc_regfile_reads         544243774                       # number of cc regfile reads
system.switch_cpus.cc_regfile_writes        312844030                       # number of cc regfile writes
system.switch_cpus.commit.amos                      0                       # Number of atomic instructions committed
system.switch_cpus.commit.branchMispredicts     28024400                       # The number of times a branch was mispredicted
system.switch_cpus.commit.branches          112614162                       # Number of branches committed
system.switch_cpus.commit.bw_lim_events      45638120                       # number cycles where commit BW limit reached
system.switch_cpus.commit.commitNonSpecStalls         9622                       # The number of times commit has been forced to stall to communicate backwards
system.switch_cpus.commit.commitSquashedInsts    621442660                       # The number of squashed insts skipped by commit
system.switch_cpus.commit.committedInsts    500000001                       # Number of instructions committed
system.switch_cpus.commit.committedOps     1032584860                       # Number of ops (including micro ops) committed
system.switch_cpus.commit.committed_per_cycle::samples   1292555946                       # Number of insts commited each cycle
system.switch_cpus.commit.committed_per_cycle::mean     0.798871                       # Number of insts commited each cycle
system.switch_cpus.commit.committed_per_cycle::stdev     1.863764                       # Number of insts commited each cycle
system.switch_cpus.commit.committed_per_cycle::underflows            0      0.00%      0.00% # Number of insts commited each cycle
system.switch_cpus.commit.committed_per_cycle::0    994785605     76.96%     76.96% # Number of insts commited each cycle
system.switch_cpus.commit.committed_per_cycle::1     76118667      5.89%     82.85% # Number of insts commited each cycle
system.switch_cpus.commit.committed_per_cycle::2     51411947      3.98%     86.83% # Number of insts commited each cycle
system.switch_cpus.commit.committed_per_cycle::3     69199791      5.35%     92.18% # Number of insts commited each cycle
system.switch_cpus.commit.committed_per_cycle::4     22995939      1.78%     93.96% # Number of insts commited each cycle
system.switch_cpus.commit.committed_per_cycle::5     13023903      1.01%     94.97% # Number of insts commited each cycle
system.switch_cpus.commit.committed_per_cycle::6     11839127      0.92%     95.89% # Number of insts commited each cycle
system.switch_cpus.commit.committed_per_cycle::7      7542847      0.58%     96.47% # Number of insts commited each cycle
system.switch_cpus.commit.committed_per_cycle::8     45638120      3.53%    100.00% # Number of insts commited each cycle
system.switch_cpus.commit.committed_per_cycle::overflows            0      0.00%    100.00% # Number of insts commited each cycle
system.switch_cpus.commit.committed_per_cycle::min_value            0                       # Number of insts commited each cycle
system.switch_cpus.commit.committed_per_cycle::max_value            8                       # Number of insts commited each cycle
system.switch_cpus.commit.committed_per_cycle::total   1292555946                       # Number of insts commited each cycle
system.switch_cpus.commit.fp_insts            3726123                       # Number of committed floating point instructions.
system.switch_cpus.commit.function_calls     12807155                       # Number of function calls committed.
system.switch_cpus.commit.int_insts        1028681834                       # Number of committed integer instructions.
system.switch_cpus.commit.loads             149680734                       # Number of loads committed
system.switch_cpus.commit.membars                5990                       # Number of memory barriers committed
system.switch_cpus.commit.op_class_0::No_OpClass      2213209      0.21%      0.21% # Class of committed instruction
system.switch_cpus.commit.op_class_0::IntAlu    787286324     76.24%     76.46% # Class of committed instruction
system.switch_cpus.commit.op_class_0::IntMult       993444      0.10%     76.55% # Class of committed instruction
system.switch_cpus.commit.op_class_0::IntDiv      2146902      0.21%     76.76% # Class of committed instruction
system.switch_cpus.commit.op_class_0::FloatAdd       126851      0.01%     76.77% # Class of committed instruction
system.switch_cpus.commit.op_class_0::FloatCmp            0      0.00%     76.77% # Class of committed instruction
system.switch_cpus.commit.op_class_0::FloatCvt            0      0.00%     76.77% # Class of committed instruction
system.switch_cpus.commit.op_class_0::FloatMult            0      0.00%     76.77% # Class of committed instruction
system.switch_cpus.commit.op_class_0::FloatMultAcc            0      0.00%     76.77% # Class of committed instruction
system.switch_cpus.commit.op_class_0::FloatDiv            0      0.00%     76.77% # Class of committed instruction
system.switch_cpus.commit.op_class_0::FloatMisc            0      0.00%     76.77% # Class of committed instruction
system.switch_cpus.commit.op_class_0::FloatSqrt            0      0.00%     76.77% # Class of committed instruction
system.switch_cpus.commit.op_class_0::SimdAdd         6150      0.00%     76.78% # Class of committed instruction
system.switch_cpus.commit.op_class_0::SimdAddAcc            0      0.00%     76.78% # Class of committed instruction
system.switch_cpus.commit.op_class_0::SimdAlu       297938      0.03%     76.80% # Class of committed instruction
system.switch_cpus.commit.op_class_0::SimdCmp            0      0.00%     76.80% # Class of committed instruction
system.switch_cpus.commit.op_class_0::SimdCvt        96022      0.01%     76.81% # Class of committed instruction
system.switch_cpus.commit.op_class_0::SimdMisc       977705      0.09%     76.91% # Class of committed instruction
system.switch_cpus.commit.op_class_0::SimdMult            0      0.00%     76.91% # Class of committed instruction
system.switch_cpus.commit.op_class_0::SimdMultAcc            0      0.00%     76.91% # Class of committed instruction
system.switch_cpus.commit.op_class_0::SimdShift         8988      0.00%     76.91% # Class of committed instruction
system.switch_cpus.commit.op_class_0::SimdShiftAcc            0      0.00%     76.91% # Class of committed instruction
system.switch_cpus.commit.op_class_0::SimdDiv            0      0.00%     76.91% # Class of committed instruction
system.switch_cpus.commit.op_class_0::SimdSqrt            0      0.00%     76.91% # Class of committed instruction
system.switch_cpus.commit.op_class_0::SimdFloatAdd            0      0.00%     76.91% # Class of committed instruction
system.switch_cpus.commit.op_class_0::SimdFloatAlu            0      0.00%     76.91% # Class of committed instruction
system.switch_cpus.commit.op_class_0::SimdFloatCmp            0      0.00%     76.91% # Class of committed instruction
system.switch_cpus.commit.op_class_0::SimdFloatCvt            0      0.00%     76.91% # Class of committed instruction
system.switch_cpus.commit.op_class_0::SimdFloatDiv            0      0.00%     76.91% # Class of committed instruction
system.switch_cpus.commit.op_class_0::SimdFloatMisc            0      0.00%     76.91% # Class of committed instruction
system.switch_cpus.commit.op_class_0::SimdFloatMult            0      0.00%     76.91% # Class of committed instruction
system.switch_cpus.commit.op_class_0::SimdFloatMultAcc            0      0.00%     76.91% # Class of committed instruction
system.switch_cpus.commit.op_class_0::SimdFloatSqrt            0      0.00%     76.91% # Class of committed instruction
system.switch_cpus.commit.op_class_0::SimdReduceAdd            0      0.00%     76.91% # Class of committed instruction
system.switch_cpus.commit.op_class_0::SimdReduceAlu            0      0.00%     76.91% # Class of committed instruction
system.switch_cpus.commit.op_class_0::SimdReduceCmp            0      0.00%     76.91% # Class of committed instruction
system.switch_cpus.commit.op_class_0::SimdFloatReduceAdd            0      0.00%     76.91% # Class of committed instruction
system.switch_cpus.commit.op_class_0::SimdFloatReduceCmp            0      0.00%     76.91% # Class of committed instruction
system.switch_cpus.commit.op_class_0::SimdAes            0      0.00%     76.91% # Class of committed instruction
system.switch_cpus.commit.op_class_0::SimdAesMix            0      0.00%     76.91% # Class of committed instruction
system.switch_cpus.commit.op_class_0::SimdSha1Hash            0      0.00%     76.91% # Class of committed instruction
system.switch_cpus.commit.op_class_0::SimdSha1Hash2            0      0.00%     76.91% # Class of committed instruction
system.switch_cpus.commit.op_class_0::SimdSha256Hash            0      0.00%     76.91% # Class of committed instruction
system.switch_cpus.commit.op_class_0::SimdSha256Hash2            0      0.00%     76.91% # Class of committed instruction
system.switch_cpus.commit.op_class_0::SimdShaSigma2            0      0.00%     76.91% # Class of committed instruction
system.switch_cpus.commit.op_class_0::SimdShaSigma3            0      0.00%     76.91% # Class of committed instruction
system.switch_cpus.commit.op_class_0::SimdPredAlu            0      0.00%     76.91% # Class of committed instruction
system.switch_cpus.commit.op_class_0::MemRead    149418904     14.47%     91.38% # Class of committed instruction
system.switch_cpus.commit.op_class_0::MemWrite     86926928      8.42%     99.80% # Class of committed instruction
system.switch_cpus.commit.op_class_0::FloatMemRead       261830      0.03%     99.82% # Class of committed instruction
system.switch_cpus.commit.op_class_0::FloatMemWrite      1823664      0.18%    100.00% # Class of committed instruction
system.switch_cpus.commit.op_class_0::IprAccess            0      0.00%    100.00% # Class of committed instruction
system.switch_cpus.commit.op_class_0::InstPrefetch            0      0.00%    100.00% # Class of committed instruction
system.switch_cpus.commit.op_class_0::total   1032584859                       # Class of committed instruction
system.switch_cpus.commit.refs              238431326                       # Number of memory references committed
system.switch_cpus.commit.swp_count                 0                       # Number of s/w prefetches committed
system.switch_cpus.commit.vec_insts                 0                       # Number of committed Vector instructions.
system.switch_cpus.committedInsts           500000000                       # Number of Instructions Simulated
system.switch_cpus.committedOps            1032584859                       # Number of Ops (including micro ops) Simulated
system.switch_cpus.cpi                       4.243575                       # CPI: Cycles Per Instruction
system.switch_cpus.cpi_total                 4.243575                       # CPI: Total CPI of All Threads
system.switch_cpus.decode.BlockedCycles     177773642                       # Number of cycles decode is blocked
system.switch_cpus.decode.DecodedInsts     1893675445                       # Number of instructions handled by decode
system.switch_cpus.decode.IdleCycles        904705289                       # Number of cycles decode is idle
system.switch_cpus.decode.RunCycles         270422720                       # Number of cycles decode is running
system.switch_cpus.decode.SquashCycles       28196601                       # Number of cycles decode is squashing
system.switch_cpus.decode.UnblockCycles      11172341                       # Number of cycles decode is unblocking
system.switch_cpus.dtb.rdAccesses           201267109                       # TLB accesses on read requests
system.switch_cpus.dtb.rdMisses               3868497                       # TLB misses on read requests
system.switch_cpus.dtb.wrAccesses           112792929                       # TLB accesses on write requests
system.switch_cpus.dtb.wrMisses                721376                       # TLB misses on write requests
system.switch_cpus.fetch.Branches           224685201                       # Number of branches that fetch encountered
system.switch_cpus.fetch.CacheLines         139186361                       # Number of cache lines fetched
system.switch_cpus.fetch.Cycles             403325961                       # Number of cycles fetch has run and was not squashing or blocked
system.switch_cpus.fetch.IcacheSquashes      16267246                       # Number of outstanding Icache misses that were squashed
system.switch_cpus.fetch.IcacheWaitRetryStallCycles    203319571                       # Number of stall cycles due to full MSHR
system.switch_cpus.fetch.Insts              968363177                       # Number of instructions fetch has processed
system.switch_cpus.fetch.MiscStallCycles     67875396                       # Number of cycles fetch has spent waiting on interrupts, or bad addresses, or out of MSHRs
system.switch_cpus.fetch.PendingQuiesceStallCycles          317                       # Number of stall cycles due to pending quiesce instructions
system.switch_cpus.fetch.PendingTrapStallCycles       367289                       # Number of stall cycles due to pending traps
system.switch_cpus.fetch.SquashCycles        56393202                       # Number of cycles fetch has spent squashing
system.switch_cpus.fetch.TlbCycles                362                       # Number of cycles fetch has spent waiting for tlb
system.switch_cpus.fetch.branchRate          0.105894                       # Number of branch fetches per cycle
system.switch_cpus.fetch.icacheStallCycles    689185103                       # Number of cycles fetch is stalled on an Icache miss
system.switch_cpus.fetch.predictedBranches     65955003                       # Number of branches that fetch has predicted taken
system.switch_cpus.fetch.rate                0.456390                       # Number of inst fetches per cycle
system.switch_cpus.fetch.rateDist::samples   1392270600                       # Number of instructions fetched each cycle (Total)
system.switch_cpus.fetch.rateDist::mean      1.429987                       # Number of instructions fetched each cycle (Total)
system.switch_cpus.fetch.rateDist::stdev     2.907274                       # Number of instructions fetched each cycle (Total)
system.switch_cpus.fetch.rateDist::underflows            0      0.00%      0.00% # Number of instructions fetched each cycle (Total)
system.switch_cpus.fetch.rateDist::0       1089376000     78.24%     78.24% # Number of instructions fetched each cycle (Total)
system.switch_cpus.fetch.rateDist::1         14652757      1.05%     79.30% # Number of instructions fetched each cycle (Total)
system.switch_cpus.fetch.rateDist::2         16306647      1.17%     80.47% # Number of instructions fetched each cycle (Total)
system.switch_cpus.fetch.rateDist::3         13783243      0.99%     81.46% # Number of instructions fetched each cycle (Total)
system.switch_cpus.fetch.rateDist::4         16754829      1.20%     82.66% # Number of instructions fetched each cycle (Total)
system.switch_cpus.fetch.rateDist::5         16189685      1.16%     83.82% # Number of instructions fetched each cycle (Total)
system.switch_cpus.fetch.rateDist::6         17250961      1.24%     85.06% # Number of instructions fetched each cycle (Total)
system.switch_cpus.fetch.rateDist::7         12812342      0.92%     85.98% # Number of instructions fetched each cycle (Total)
system.switch_cpus.fetch.rateDist::8        195144136     14.02%    100.00% # Number of instructions fetched each cycle (Total)
system.switch_cpus.fetch.rateDist::overflows            0      0.00%    100.00% # Number of instructions fetched each cycle (Total)
system.switch_cpus.fetch.rateDist::min_value            0                       # Number of instructions fetched each cycle (Total)
system.switch_cpus.fetch.rateDist::max_value            8                       # Number of instructions fetched each cycle (Total)
system.switch_cpus.fetch.rateDist::total   1392270600                       # Number of instructions fetched each cycle (Total)
system.switch_cpus.fp_regfile_reads           6978624                       # number of floating regfile reads
system.switch_cpus.fp_regfile_writes          3218534                       # number of floating regfile writes
system.switch_cpus.idleCycles               729516713                       # Total number of cycles that the CPU has spent unscheduled due to idling
system.switch_cpus.iew.branchMispredicts     36076964                       # Number of branch mispredicts detected at execute
system.switch_cpus.iew.exec_branches        142052849                       # Number of branches executed
system.switch_cpus.iew.exec_nop                     0                       # number of nop insts executed
system.switch_cpus.iew.exec_rate             0.679574                       # Inst execution rate
system.switch_cpus.iew.exec_refs            342143114                       # number of memory reference insts executed
system.switch_cpus.iew.exec_stores          112779745                       # Number of stores executed
system.switch_cpus.iew.exec_swp                     0                       # number of swp insts executed
system.switch_cpus.iew.iewBlockCycles       132043349                       # Number of cycles IEW is blocking
system.switch_cpus.iew.iewDispLoadInsts     236822165                       # Number of dispatched load instructions
system.switch_cpus.iew.iewDispNonSpecInsts         8545                       # Number of dispatched non-speculative instructions
system.switch_cpus.iew.iewDispSquashedInsts      1729296                       # Number of squashed instructions skipped by dispatch
system.switch_cpus.iew.iewDispStoreInsts    134760323                       # Number of dispatched store instructions
system.switch_cpus.iew.iewDispatchedInsts   1655267108                       # Number of instructions dispatched to IQ
system.switch_cpus.iew.iewExecLoadInsts     229363369                       # Number of load instructions executed
system.switch_cpus.iew.iewExecSquashedInsts     50887078                       # Number of squashed instructions skipped in execute
system.switch_cpus.iew.iewExecutedInsts    1441910670                       # Number of executed instructions
system.switch_cpus.iew.iewIQFullEvents         907853                       # Number of times the IQ has become full, causing a stall
system.switch_cpus.iew.iewIdleCycles                0                       # Number of cycles IEW is idle
system.switch_cpus.iew.iewLSQFullEvents       5203143                       # Number of times the LSQ has become full, causing a stall
system.switch_cpus.iew.iewSquashCycles       28196601                       # Number of cycles IEW is squashing
system.switch_cpus.iew.iewUnblockCycles       6466206                       # Number of cycles IEW is unblocking
system.switch_cpus.iew.lsq.thread0.blockedLoads            0                       # Number of blocked loads due to partial load-store forwarding
system.switch_cpus.iew.lsq.thread0.cacheBlocked      7175775                       # Number of times an access to memory failed due to the cache being blocked
system.switch_cpus.iew.lsq.thread0.forwLoads     12738106                       # Number of loads that had data forwarded from stores
system.switch_cpus.iew.lsq.thread0.ignoredResponses       127455                       # Number of memory responses ignored because the instruction is squashed
system.switch_cpus.iew.lsq.thread0.invAddrLoads            0                       # Number of loads ignored due to an invalid address
system.switch_cpus.iew.lsq.thread0.invAddrSwpfs            0                       # Number of software prefetches ignored due to an invalid address
system.switch_cpus.iew.lsq.thread0.memOrderViolation       163573                       # Number of memory ordering violations
system.switch_cpus.iew.lsq.thread0.rescheduledLoads       400620                       # Number of loads that were rescheduled
system.switch_cpus.iew.lsq.thread0.squashedLoads     87141427                       # Number of loads squashed
system.switch_cpus.iew.lsq.thread0.squashedStores     46009730                       # Number of stores squashed
system.switch_cpus.iew.memOrderViolationEvents       163573                       # Number of memory order violations
system.switch_cpus.iew.predictedNotTakenIncorrect     33536423                       # Number of branches that were predicted not taken incorrectly
system.switch_cpus.iew.predictedTakenIncorrect      2540541                       # Number of branches that were predicted taken incorrectly
system.switch_cpus.iew.wb_consumers        1467957357                       # num instructions consuming a value
system.switch_cpus.iew.wb_count            1386264272                       # cumulative count of insts written-back
system.switch_cpus.iew.wb_fanout             0.642339                       # average fanout of values written-back
system.switch_cpus.iew.wb_producers         942926004                       # num instructions producing a value
system.switch_cpus.iew.wb_rate               0.653347                       # insts written-back per cycle
system.switch_cpus.iew.wb_sent             1397062942                       # cumulative count of insts sent to commit
system.switch_cpus.int_regfile_reads       2155585656                       # number of integer regfile reads
system.switch_cpus.int_regfile_writes      1129580176                       # number of integer regfile writes
system.switch_cpus.ipc                       0.235650                       # IPC: Instructions Per Cycle
system.switch_cpus.ipc_total                 0.235650                       # IPC: Total IPC of All Threads
system.switch_cpus.iq.FU_type_0::No_OpClass     12109309      0.81%      0.81% # Type of FU issued
system.switch_cpus.iq.FU_type_0::IntAlu    1118177603     74.90%     75.72% # Type of FU issued
system.switch_cpus.iq.FU_type_0::IntMult      1188571      0.08%     75.80% # Type of FU issued
system.switch_cpus.iq.FU_type_0::IntDiv       2200158      0.15%     75.94% # Type of FU issued
system.switch_cpus.iq.FU_type_0::FloatAdd       136991      0.01%     75.95% # Type of FU issued
system.switch_cpus.iq.FU_type_0::FloatCmp            0      0.00%     75.95% # Type of FU issued
system.switch_cpus.iq.FU_type_0::FloatCvt            7      0.00%     75.95% # Type of FU issued
system.switch_cpus.iq.FU_type_0::FloatMult            4      0.00%     75.95% # Type of FU issued
system.switch_cpus.iq.FU_type_0::FloatMultAcc            0      0.00%     75.95% # Type of FU issued
system.switch_cpus.iq.FU_type_0::FloatDiv            0      0.00%     75.95% # Type of FU issued
system.switch_cpus.iq.FU_type_0::FloatMisc            0      0.00%     75.95% # Type of FU issued
system.switch_cpus.iq.FU_type_0::FloatSqrt            0      0.00%     75.95% # Type of FU issued
system.switch_cpus.iq.FU_type_0::SimdAdd         9884      0.00%     75.95% # Type of FU issued
system.switch_cpus.iq.FU_type_0::SimdAddAcc            0      0.00%     75.95% # Type of FU issued
system.switch_cpus.iq.FU_type_0::SimdAlu       307098      0.02%     75.97% # Type of FU issued
system.switch_cpus.iq.FU_type_0::SimdCmp            0      0.00%     75.97% # Type of FU issued
system.switch_cpus.iq.FU_type_0::SimdCvt       112565      0.01%     75.98% # Type of FU issued
system.switch_cpus.iq.FU_type_0::SimdMisc      1014755      0.07%     76.05% # Type of FU issued
system.switch_cpus.iq.FU_type_0::SimdMult            0      0.00%     76.05% # Type of FU issued
system.switch_cpus.iq.FU_type_0::SimdMultAcc            0      0.00%     76.05% # Type of FU issued
system.switch_cpus.iq.FU_type_0::SimdShift        10778      0.00%     76.05% # Type of FU issued
system.switch_cpus.iq.FU_type_0::SimdShiftAcc            0      0.00%     76.05% # Type of FU issued
system.switch_cpus.iq.FU_type_0::SimdDiv            0      0.00%     76.05% # Type of FU issued
system.switch_cpus.iq.FU_type_0::SimdSqrt            0      0.00%     76.05% # Type of FU issued
system.switch_cpus.iq.FU_type_0::SimdFloatAdd           77      0.00%     76.05% # Type of FU issued
system.switch_cpus.iq.FU_type_0::SimdFloatAlu            0      0.00%     76.05% # Type of FU issued
system.switch_cpus.iq.FU_type_0::SimdFloatCmp            0      0.00%     76.05% # Type of FU issued
system.switch_cpus.iq.FU_type_0::SimdFloatCvt            0      0.00%     76.05% # Type of FU issued
system.switch_cpus.iq.FU_type_0::SimdFloatDiv            0      0.00%     76.05% # Type of FU issued
system.switch_cpus.iq.FU_type_0::SimdFloatMisc            0      0.00%     76.05% # Type of FU issued
system.switch_cpus.iq.FU_type_0::SimdFloatMult            0      0.00%     76.05% # Type of FU issued
system.switch_cpus.iq.FU_type_0::SimdFloatMultAcc            0      0.00%     76.05% # Type of FU issued
system.switch_cpus.iq.FU_type_0::SimdFloatSqrt            0      0.00%     76.05% # Type of FU issued
system.switch_cpus.iq.FU_type_0::SimdReduceAdd            0      0.00%     76.05% # Type of FU issued
system.switch_cpus.iq.FU_type_0::SimdReduceAlu            0      0.00%     76.05% # Type of FU issued
system.switch_cpus.iq.FU_type_0::SimdReduceCmp            0      0.00%     76.05% # Type of FU issued
system.switch_cpus.iq.FU_type_0::SimdFloatReduceAdd            0      0.00%     76.05% # Type of FU issued
system.switch_cpus.iq.FU_type_0::SimdFloatReduceCmp            0      0.00%     76.05% # Type of FU issued
system.switch_cpus.iq.FU_type_0::SimdAes            0      0.00%     76.05% # Type of FU issued
system.switch_cpus.iq.FU_type_0::SimdAesMix            0      0.00%     76.05% # Type of FU issued
system.switch_cpus.iq.FU_type_0::SimdSha1Hash            0      0.00%     76.05% # Type of FU issued
system.switch_cpus.iq.FU_type_0::SimdSha1Hash2            0      0.00%     76.05% # Type of FU issued
system.switch_cpus.iq.FU_type_0::SimdSha256Hash            0      0.00%     76.05% # Type of FU issued
system.switch_cpus.iq.FU_type_0::SimdSha256Hash2            0      0.00%     76.05% # Type of FU issued
system.switch_cpus.iq.FU_type_0::SimdShaSigma2            0      0.00%     76.05% # Type of FU issued
system.switch_cpus.iq.FU_type_0::SimdShaSigma3            0      0.00%     76.05% # Type of FU issued
system.switch_cpus.iq.FU_type_0::SimdPredAlu            0      0.00%     76.05% # Type of FU issued
system.switch_cpus.iq.FU_type_0::MemRead    236712982     15.86%     91.91% # Type of FU issued
system.switch_cpus.iq.FU_type_0::MemWrite    114276542      7.66%     99.56% # Type of FU issued
system.switch_cpus.iq.FU_type_0::FloatMemRead      2447566      0.16%     99.73% # Type of FU issued
system.switch_cpus.iq.FU_type_0::FloatMemWrite      4092861      0.27%    100.00% # Type of FU issued
system.switch_cpus.iq.FU_type_0::IprAccess            0      0.00%    100.00% # Type of FU issued
system.switch_cpus.iq.FU_type_0::InstPrefetch            0      0.00%    100.00% # Type of FU issued
system.switch_cpus.iq.FU_type_0::total     1492797751                       # Type of FU issued
system.switch_cpus.iq.fp_alu_accesses         9264010                       # Number of floating point alu accesses
system.switch_cpus.iq.fp_inst_queue_reads     17814320                       # Number of floating instruction queue reads
system.switch_cpus.iq.fp_inst_queue_wakeup_accesses      7077770                       # Number of floating instruction queue wakeup accesses
system.switch_cpus.iq.fp_inst_queue_writes     13049439                       # Number of floating instruction queue writes
system.switch_cpus.iq.fu_busy_cnt            25160451                       # FU busy when requested
system.switch_cpus.iq.fu_busy_rate           0.016855                       # FU busy rate (busy events/executed inst)
system.switch_cpus.iq.fu_full::No_OpClass            0      0.00%      0.00% # attempts to use FU when none available
system.switch_cpus.iq.fu_full::IntAlu        17667150     70.22%     70.22% # attempts to use FU when none available
system.switch_cpus.iq.fu_full::IntMult              0      0.00%     70.22% # attempts to use FU when none available
system.switch_cpus.iq.fu_full::IntDiv               0      0.00%     70.22% # attempts to use FU when none available
system.switch_cpus.iq.fu_full::FloatAdd             0      0.00%     70.22% # attempts to use FU when none available
system.switch_cpus.iq.fu_full::FloatCmp             0      0.00%     70.22% # attempts to use FU when none available
system.switch_cpus.iq.fu_full::FloatCvt             0      0.00%     70.22% # attempts to use FU when none available
system.switch_cpus.iq.fu_full::FloatMult            0      0.00%     70.22% # attempts to use FU when none available
system.switch_cpus.iq.fu_full::FloatMultAcc            0      0.00%     70.22% # attempts to use FU when none available
system.switch_cpus.iq.fu_full::FloatDiv             0      0.00%     70.22% # attempts to use FU when none available
system.switch_cpus.iq.fu_full::FloatMisc            0      0.00%     70.22% # attempts to use FU when none available
system.switch_cpus.iq.fu_full::FloatSqrt            0      0.00%     70.22% # attempts to use FU when none available
system.switch_cpus.iq.fu_full::SimdAdd              0      0.00%     70.22% # attempts to use FU when none available
system.switch_cpus.iq.fu_full::SimdAddAcc            0      0.00%     70.22% # attempts to use FU when none available
system.switch_cpus.iq.fu_full::SimdAlu          36345      0.14%     70.36% # attempts to use FU when none available
system.switch_cpus.iq.fu_full::SimdCmp              0      0.00%     70.36% # attempts to use FU when none available
system.switch_cpus.iq.fu_full::SimdCvt             67      0.00%     70.36% # attempts to use FU when none available
system.switch_cpus.iq.fu_full::SimdMisc            99      0.00%     70.36% # attempts to use FU when none available
system.switch_cpus.iq.fu_full::SimdMult             0      0.00%     70.36% # attempts to use FU when none available
system.switch_cpus.iq.fu_full::SimdMultAcc            0      0.00%     70.36% # attempts to use FU when none available
system.switch_cpus.iq.fu_full::SimdShift            4      0.00%     70.36% # attempts to use FU when none available
system.switch_cpus.iq.fu_full::SimdShiftAcc            0      0.00%     70.36% # attempts to use FU when none available
system.switch_cpus.iq.fu_full::SimdDiv              0      0.00%     70.36% # attempts to use FU when none available
system.switch_cpus.iq.fu_full::SimdSqrt             0      0.00%     70.36% # attempts to use FU when none available
system.switch_cpus.iq.fu_full::SimdFloatAdd            0      0.00%     70.36% # attempts to use FU when none available
system.switch_cpus.iq.fu_full::SimdFloatAlu            0      0.00%     70.36% # attempts to use FU when none available
system.switch_cpus.iq.fu_full::SimdFloatCmp            0      0.00%     70.36% # attempts to use FU when none available
system.switch_cpus.iq.fu_full::SimdFloatCvt            0      0.00%     70.36% # attempts to use FU when none available
system.switch_cpus.iq.fu_full::SimdFloatDiv            0      0.00%     70.36% # attempts to use FU when none available
system.switch_cpus.iq.fu_full::SimdFloatMisc            0      0.00%     70.36% # attempts to use FU when none available
system.switch_cpus.iq.fu_full::SimdFloatMult            0      0.00%     70.36% # attempts to use FU when none available
system.switch_cpus.iq.fu_full::SimdFloatMultAcc            0      0.00%     70.36% # attempts to use FU when none available
system.switch_cpus.iq.fu_full::SimdFloatSqrt            0      0.00%     70.36% # attempts to use FU when none available
system.switch_cpus.iq.fu_full::SimdReduceAdd            0      0.00%     70.36% # attempts to use FU when none available
system.switch_cpus.iq.fu_full::SimdReduceAlu            0      0.00%     70.36% # attempts to use FU when none available
system.switch_cpus.iq.fu_full::SimdReduceCmp            0      0.00%     70.36% # attempts to use FU when none available
system.switch_cpus.iq.fu_full::SimdFloatReduceAdd            0      0.00%     70.36% # attempts to use FU when none available
system.switch_cpus.iq.fu_full::SimdFloatReduceCmp            0      0.00%     70.36% # attempts to use FU when none available
system.switch_cpus.iq.fu_full::SimdAes              0      0.00%     70.36% # attempts to use FU when none available
system.switch_cpus.iq.fu_full::SimdAesMix            0      0.00%     70.36% # attempts to use FU when none available
system.switch_cpus.iq.fu_full::SimdSha1Hash            0      0.00%     70.36% # attempts to use FU when none available
system.switch_cpus.iq.fu_full::SimdSha1Hash2            0      0.00%     70.36% # attempts to use FU when none available
system.switch_cpus.iq.fu_full::SimdSha256Hash            0      0.00%     70.36% # attempts to use FU when none available
system.switch_cpus.iq.fu_full::SimdSha256Hash2            0      0.00%     70.36% # attempts to use FU when none available
system.switch_cpus.iq.fu_full::SimdShaSigma2            0      0.00%     70.36% # attempts to use FU when none available
system.switch_cpus.iq.fu_full::SimdShaSigma3            0      0.00%     70.36% # attempts to use FU when none available
system.switch_cpus.iq.fu_full::SimdPredAlu            0      0.00%     70.36% # attempts to use FU when none available
system.switch_cpus.iq.fu_full::MemRead        5509021     21.90%     92.26% # attempts to use FU when none available
system.switch_cpus.iq.fu_full::MemWrite        983515      3.91%     96.17% # attempts to use FU when none available
system.switch_cpus.iq.fu_full::FloatMemRead       564349      2.24%     98.41% # attempts to use FU when none available
system.switch_cpus.iq.fu_full::FloatMemWrite       399901      1.59%    100.00% # attempts to use FU when none available
system.switch_cpus.iq.fu_full::IprAccess            0      0.00%    100.00% # attempts to use FU when none available
system.switch_cpus.iq.fu_full::InstPrefetch            0      0.00%    100.00% # attempts to use FU when none available
system.switch_cpus.iq.int_alu_accesses     1496584883                       # Number of integer alu accesses
system.switch_cpus.iq.int_inst_queue_reads   4394951321                       # Number of integer instruction queue reads
system.switch_cpus.iq.int_inst_queue_wakeup_accesses   1379186502                       # Number of integer instruction queue wakeup accesses
system.switch_cpus.iq.int_inst_queue_writes   2265054689                       # Number of integer instruction queue writes
system.switch_cpus.iq.iqInstsAdded         1655236007                       # Number of instructions added to the IQ (excludes non-spec)
system.switch_cpus.iq.iqInstsIssued        1492797751                       # Number of instructions issued
system.switch_cpus.iq.iqNonSpecInstsAdded        31101                       # Number of non-speculative instructions added to the IQ
system.switch_cpus.iq.iqSquashedInstsExamined    622682192                       # Number of squashed instructions iterated over during squash; mainly for profiling
system.switch_cpus.iq.iqSquashedInstsIssued      9739091                       # Number of squashed instructions issued
system.switch_cpus.iq.iqSquashedNonSpecRemoved        21479                       # Number of squashed non-spec instructions that were removed
system.switch_cpus.iq.iqSquashedOperandsExamined    833462694                       # Number of squashed operands that are examined and possibly removed from graph
system.switch_cpus.iq.issued_per_cycle::samples   1392270600                       # Number of insts issued each cycle
system.switch_cpus.iq.issued_per_cycle::mean     1.072204                       # Number of insts issued each cycle
system.switch_cpus.iq.issued_per_cycle::stdev     1.965960                       # Number of insts issued each cycle
system.switch_cpus.iq.issued_per_cycle::underflows            0      0.00%      0.00% # Number of insts issued each cycle
system.switch_cpus.iq.issued_per_cycle::0    971517068     69.78%     69.78% # Number of insts issued each cycle
system.switch_cpus.iq.issued_per_cycle::1     78437979      5.63%     75.41% # Number of insts issued each cycle
system.switch_cpus.iq.issued_per_cycle::2     79768522      5.73%     81.14% # Number of insts issued each cycle
system.switch_cpus.iq.issued_per_cycle::3     66814025      4.80%     85.94% # Number of insts issued each cycle
system.switch_cpus.iq.issued_per_cycle::4     62265918      4.47%     90.41% # Number of insts issued each cycle
system.switch_cpus.iq.issued_per_cycle::5     48270379      3.47%     93.88% # Number of insts issued each cycle
system.switch_cpus.iq.issued_per_cycle::6     45696179      3.28%     97.16% # Number of insts issued each cycle
system.switch_cpus.iq.issued_per_cycle::7     26216228      1.88%     99.05% # Number of insts issued each cycle
system.switch_cpus.iq.issued_per_cycle::8     13284302      0.95%    100.00% # Number of insts issued each cycle
system.switch_cpus.iq.issued_per_cycle::overflows            0      0.00%    100.00% # Number of insts issued each cycle
system.switch_cpus.iq.issued_per_cycle::min_value            0                       # Number of insts issued each cycle
system.switch_cpus.iq.issued_per_cycle::max_value            8                       # Number of insts issued each cycle
system.switch_cpus.iq.issued_per_cycle::total   1392270600                       # Number of insts issued each cycle
system.switch_cpus.iq.rate                   0.703557                       # Inst issue rate
system.switch_cpus.iq.vec_alu_accesses              0                       # Number of vector alu accesses
system.switch_cpus.iq.vec_inst_queue_reads            0                       # Number of vector instruction queue reads
system.switch_cpus.iq.vec_inst_queue_wakeup_accesses            0                       # Number of vector instruction queue wakeup accesses
system.switch_cpus.iq.vec_inst_queue_writes            0                       # Number of vector instruction queue writes
system.switch_cpus.itb.rdAccesses                   0                       # TLB accesses on read requests
system.switch_cpus.itb.rdMisses                     0                       # TLB misses on read requests
system.switch_cpus.itb.wrAccesses           139249509                       # TLB accesses on write requests
system.switch_cpus.itb.wrMisses               1660166                       # TLB misses on write requests
system.switch_cpus.memDep0.conflictingLoads      6931704                       # Number of conflicting loads.
system.switch_cpus.memDep0.conflictingStores      7934350                       # Number of conflicting stores.
system.switch_cpus.memDep0.insertedLoads    236822165                       # Number of loads inserted to the mem dependence unit.
system.switch_cpus.memDep0.insertedStores    134760323                       # Number of stores inserted to the mem dependence unit.
system.switch_cpus.misc_regfile_reads       653540569                       # number of misc regfile reads
system.switch_cpus.numCycles               2121787313                       # number of cpu cycles simulated
system.switch_cpus.numWorkItemsCompleted            0                       # number of work items this cpu completed
system.switch_cpus.numWorkItemsStarted              0                       # number of work items this cpu started
system.switch_cpus.rename.BlockCycles       147875873                       # Number of cycles rename is blocking
system.switch_cpus.rename.CommittedMaps    1087006392                       # Number of HB maps that are committed
system.switch_cpus.rename.IQFullEvents        8637278                       # Number of times rename has blocked due to IQ full
system.switch_cpus.rename.IdleCycles        916924082                       # Number of cycles rename is idle
system.switch_cpus.rename.LQFullEvents        1078389                       # Number of times rename has blocked due to LQ full
system.switch_cpus.rename.ROBFullEvents        326852                       # Number of times rename has blocked due to ROB full
system.switch_cpus.rename.RenameLookups    4458883348                       # Number of register rename lookups that rename has made
system.switch_cpus.rename.RenamedInsts     1817034945                       # Number of instructions processed by rename
system.switch_cpus.rename.RenamedOperands   1901167933                       # Number of destination operands rename has renamed
system.switch_cpus.rename.RunCycles         267742847                       # Number of cycles rename is running
system.switch_cpus.rename.SQFullEvents       20846027                       # Number of times rename has blocked due to SQ full
system.switch_cpus.rename.SquashCycles       28196601                       # Number of cycles rename is squashing
system.switch_cpus.rename.UnblockCycles      31495331                       # Number of cycles rename is unblocking
system.switch_cpus.rename.UndoneMaps        814161422                       # Number of HB maps that are undone due to squashing
system.switch_cpus.rename.fp_rename_lookups      8216185                       # Number of floating rename lookups
system.switch_cpus.rename.int_rename_lookups   2828542244                       # Number of integer rename lookups
system.switch_cpus.rename.serializeStallCycles        35859                       # count of cycles rename stalled for serializing inst
system.switch_cpus.rename.serializingInsts          406                       # count of serializing insts renamed
system.switch_cpus.rename.skidInsts          32341604                       # count of insts added to the skid buffer
system.switch_cpus.rename.tempSerializingInsts          395                       # count of temporary serializing insts renamed
system.switch_cpus.rob.rob_reads           2900174810                       # The number of ROB reads
system.switch_cpus.rob.rob_writes          3408819477                       # The number of ROB writes
system.switch_cpus.timesIdled                25174606                       # Number of times that the entire CPU went into an idle state and unscheduled itself
system.tol2bus.snoop_filter.hit_multi_requests       245695                       # Number of requests hitting in the snoop filter with multiple (>1) holders of the requested data.
system.tol2bus.snoop_filter.hit_multi_snoops        14662                       # Number of snoops hitting in the snoop filter with multiple (>1) holders of the requested data.
system.tol2bus.snoop_filter.hit_single_requests     47945574                       # Number of requests hitting in the snoop filter with a single holder of the requested data.
system.tol2bus.snoop_filter.hit_single_snoops       349746                       # Number of snoops hitting in the snoop filter with a single holder of the requested data.
system.tol2bus.snoop_filter.tot_requests     95064360                       # Total number of requests made to the snoop filter.
system.tol2bus.snoop_filter.tot_snoops         364408                       # Total number of snoops made to the snoop filter.
system.membus.pwrStateResidencyTicks::UNDEFINED 2243752199500                       # Cumulative time (in ticks) in various power states
system.membus.trans_dist::ReadResp            4350113                       # Transaction distribution
system.membus.trans_dist::WritebackDirty       781455                       # Transaction distribution
system.membus.trans_dist::CleanEvict          4125162                       # Transaction distribution
system.membus.trans_dist::UpgradeReq              169                       # Transaction distribution
system.membus.trans_dist::ReadExReq            556591                       # Transaction distribution
system.membus.trans_dist::ReadExResp           556591                       # Transaction distribution
system.membus.trans_dist::ReadSharedReq       4350113                       # Transaction distribution
system.membus.pkt_count_system.l2.mem_side::system.mem_ctrls.port     14720194                       # Packet count per connected master and slave (bytes)
system.membus.pkt_count_system.l2.mem_side::total     14720194                       # Packet count per connected master and slave (bytes)
system.membus.pkt_count::total               14720194                       # Packet count per connected master and slave (bytes)
system.membus.pkt_size_system.l2.mem_side::system.mem_ctrls.port    364042176                       # Cumulative packet size per connected master and slave (bytes)
system.membus.pkt_size_system.l2.mem_side::total    364042176                       # Cumulative packet size per connected master and slave (bytes)
system.membus.pkt_size::total               364042176                       # Cumulative packet size per connected master and slave (bytes)
system.membus.snoops                                0                       # Total snoops (count)
system.membus.snoopTraffic                          0                       # Total snoop traffic (bytes)
system.membus.snoop_fanout::samples           4906873                       # Request fanout histogram
system.membus.snoop_fanout::mean                    0                       # Request fanout histogram
system.membus.snoop_fanout::stdev                   0                       # Request fanout histogram
system.membus.snoop_fanout::underflows              0      0.00%      0.00% # Request fanout histogram
system.membus.snoop_fanout::0                 4906873    100.00%    100.00% # Request fanout histogram
system.membus.snoop_fanout::1                       0      0.00%    100.00% # Request fanout histogram
system.membus.snoop_fanout::overflows               0      0.00%    100.00% # Request fanout histogram
system.membus.snoop_fanout::min_value               0                       # Request fanout histogram
system.membus.snoop_fanout::max_value               0                       # Request fanout histogram
system.membus.snoop_fanout::total             4906873                       # Request fanout histogram
system.membus.reqLayer2.occupancy         14445198342                       # Layer occupancy (ticks)
system.membus.reqLayer2.utilization               1.4                       # Layer utilization (%)
system.membus.respLayer1.occupancy        26570384355                       # Layer occupancy (ticks)
system.membus.respLayer1.utilization              2.5                       # Layer utilization (%)
system.switch_cpus.pwrStateResidencyTicks::OFF 2243752199500                       # Cumulative time (in ticks) in various power states
system.switch_cpus.dtb.walker.pwrStateResidencyTicks::UNDEFINED 2243752199500                       # Cumulative time (in ticks) in various power states
system.switch_cpus.itb.walker.pwrStateResidencyTicks::UNDEFINED 2243752199500                       # Cumulative time (in ticks) in various power states
system.tol2bus.pwrStateResidencyTicks::UNDEFINED 2243752199500                       # Cumulative time (in ticks) in various power states
system.tol2bus.trans_dist::ReadResp          44344403                       # Transaction distribution
system.tol2bus.trans_dist::WritebackDirty      4255532                       # Transaction distribution
system.tol2bus.trans_dist::WritebackClean     37594600                       # Transaction distribution
system.tol2bus.trans_dist::CleanEvict         9395670                       # Transaction distribution
system.tol2bus.trans_dist::UpgradeReq            7823                       # Transaction distribution
system.tol2bus.trans_dist::UpgradeResp           7823                       # Transaction distribution
system.tol2bus.trans_dist::ReadExReq          1826564                       # Transaction distribution
system.tol2bus.trans_dist::ReadExResp         1826564                       # Transaction distribution
system.tol2bus.trans_dist::ReadCleanReq      37602266                       # Transaction distribution
system.tol2bus.trans_dist::ReadSharedReq      6742137                       # Transaction distribution
system.tol2bus.pkt_count_system.cpu.icache.mem_side::system.l2.cpu_side    112790808                       # Packet count per connected master and slave (bytes)
system.tol2bus.pkt_count_system.cpu.dcache.mem_side::system.l2.cpu_side     25721749                       # Packet count per connected master and slave (bytes)
system.tol2bus.pkt_count::total             138512557                       # Packet count per connected master and slave (bytes)
system.tol2bus.pkt_size_system.cpu.icache.mem_side::system.l2.cpu_side   4812066688                       # Cumulative packet size per connected master and slave (bytes)
system.tol2bus.pkt_size_system.cpu.dcache.mem_side::system.l2.cpu_side    770737792                       # Cumulative packet size per connected master and slave (bytes)
system.tol2bus.pkt_size::total             5582804480                       # Cumulative packet size per connected master and slave (bytes)
system.tol2bus.snoops                         5090825                       # Total snoops (count)
system.tol2bus.snoopTraffic                  50545856                       # Total snoop traffic (bytes)
system.tol2bus.snoop_fanout::samples         52181104                       # Request fanout histogram
system.tol2bus.snoop_fanout::mean            0.011579                       # Request fanout histogram
system.tol2bus.snoop_fanout::stdev           0.109578                       # Request fanout histogram
system.tol2bus.snoop_fanout::underflows             0      0.00%      0.00% # Request fanout histogram
system.tol2bus.snoop_fanout::0               51591541     98.87%     98.87% # Request fanout histogram
system.tol2bus.snoop_fanout::1                 574901      1.10%     99.97% # Request fanout histogram
system.tol2bus.snoop_fanout::2                  14662      0.03%    100.00% # Request fanout histogram
system.tol2bus.snoop_fanout::3                      0      0.00%    100.00% # Request fanout histogram
system.tol2bus.snoop_fanout::4                      0      0.00%    100.00% # Request fanout histogram
system.tol2bus.snoop_fanout::overflows              0      0.00%    100.00% # Request fanout histogram
system.tol2bus.snoop_fanout::min_value              0                       # Request fanout histogram
system.tol2bus.snoop_fanout::max_value              2                       # Request fanout histogram
system.tol2bus.snoop_fanout::total           52181104                       # Request fanout histogram
system.tol2bus.reqLayer0.occupancy        89946819177                       # Layer occupancy (ticks)
system.tol2bus.reqLayer0.utilization              8.5                       # Layer utilization (%)
system.tol2bus.respLayer1.occupancy       12864267362                       # Layer occupancy (ticks)
system.tol2bus.respLayer1.utilization             1.2                       # Layer utilization (%)
system.tol2bus.respLayer0.occupancy       56414745418                       # Layer occupancy (ticks)
system.tol2bus.respLayer0.utilization             5.3                       # Layer utilization (%)
system.voltage_domain.voltage                       1                       # Voltage in Volts
system.clk_domain.clock                          1000                       # Clock period in ticks
system.l2.pwrStateResidencyTicks::UNDEFINED 2243752199500                       # Cumulative time (in ticks) in various power states
system.l2.demand_hits::.switch_cpus.inst     34655921                       # number of demand (read+write) hits
system.l2.demand_hits::.switch_cpus.data      6600012                       # number of demand (read+write) hits
system.l2.demand_hits::total                 41255933                       # number of demand (read+write) hits
system.l2.overall_hits::.switch_cpus.inst     34655921                       # number of overall hits
system.l2.overall_hits::.switch_cpus.data      6600012                       # number of overall hits
system.l2.overall_hits::total                41255933                       # number of overall hits
system.l2.demand_misses::.switch_cpus.inst      2938021                       # number of demand (read+write) misses
system.l2.demand_misses::.switch_cpus.data      1968689                       # number of demand (read+write) misses
system.l2.demand_misses::total                4906710                       # number of demand (read+write) misses
system.l2.overall_misses::.switch_cpus.inst      2938021                       # number of overall misses
system.l2.overall_misses::.switch_cpus.data      1968689                       # number of overall misses
system.l2.overall_misses::total               4906710                       # number of overall misses
system.l2.demand_miss_latency::.switch_cpus.inst 237558844297                       # number of demand (read+write) miss cycles
system.l2.demand_miss_latency::.switch_cpus.data 168822867950                       # number of demand (read+write) miss cycles
system.l2.demand_miss_latency::total     406381712247                       # number of demand (read+write) miss cycles
system.l2.overall_miss_latency::.switch_cpus.inst 237558844297                       # number of overall miss cycles
system.l2.overall_miss_latency::.switch_cpus.data 168822867950                       # number of overall miss cycles
system.l2.overall_miss_latency::total    406381712247                       # number of overall miss cycles
system.l2.demand_accesses::.switch_cpus.inst     37593942                       # number of demand (read+write) accesses
system.l2.demand_accesses::.switch_cpus.data      8568701                       # number of demand (read+write) accesses
system.l2.demand_accesses::total             46162643                       # number of demand (read+write) accesses
system.l2.overall_accesses::.switch_cpus.inst     37593942                       # number of overall (read+write) accesses
system.l2.overall_accesses::.switch_cpus.data      8568701                       # number of overall (read+write) accesses
system.l2.overall_accesses::total            46162643                       # number of overall (read+write) accesses
system.l2.demand_miss_rate::.switch_cpus.inst     0.078151                       # miss rate for demand accesses
system.l2.demand_miss_rate::.switch_cpus.data     0.229753                       # miss rate for demand accesses
system.l2.demand_miss_rate::total            0.106292                       # miss rate for demand accesses
system.l2.overall_miss_rate::.switch_cpus.inst     0.078151                       # miss rate for overall accesses
system.l2.overall_miss_rate::.switch_cpus.data     0.229753                       # miss rate for overall accesses
system.l2.overall_miss_rate::total           0.106292                       # miss rate for overall accesses
system.l2.demand_avg_miss_latency::.switch_cpus.inst 80856.755039                       # average overall miss latency
system.l2.demand_avg_miss_latency::.switch_cpus.data 85753.955018                       # average overall miss latency
system.l2.demand_avg_miss_latency::total 82821.628392                       # average overall miss latency
system.l2.overall_avg_miss_latency::.switch_cpus.inst 80856.755039                       # average overall miss latency
system.l2.overall_avg_miss_latency::.switch_cpus.data 85753.955018                       # average overall miss latency
system.l2.overall_avg_miss_latency::total 82821.628392                       # average overall miss latency
system.l2.blocked_cycles::no_mshrs          714123430                       # number of cycles access was blocked
system.l2.blocked_cycles::no_targets                0                       # number of cycles access was blocked
system.l2.blocked::no_mshrs                   4906873                       # number of cycles access was blocked
system.l2.blocked::no_targets                       0                       # number of cycles access was blocked
system.l2.avg_blocked_cycles::no_mshrs     145.535340                       # average number of cycles each access was blocked
system.l2.avg_blocked_cycles::no_targets          nan                       # average number of cycles each access was blocked
system.l2.writebacks::.writebacks              781455                       # number of writebacks
system.l2.writebacks::total                    781455                       # number of writebacks
system.l2.demand_mshr_misses::.switch_cpus.inst      2938021                       # number of demand (read+write) MSHR misses
system.l2.demand_mshr_misses::.switch_cpus.data      1968689                       # number of demand (read+write) MSHR misses
system.l2.demand_mshr_misses::total           4906710                       # number of demand (read+write) MSHR misses
system.l2.overall_mshr_misses::.switch_cpus.inst      2938021                       # number of overall MSHR misses
system.l2.overall_mshr_misses::.switch_cpus.data      1968689                       # number of overall MSHR misses
system.l2.overall_mshr_misses::total          4906710                       # number of overall MSHR misses
system.l2.demand_mshr_miss_latency::.switch_cpus.inst 208178634297                       # number of demand (read+write) MSHR miss cycles
system.l2.demand_mshr_miss_latency::.switch_cpus.data 149135977451                       # number of demand (read+write) MSHR miss cycles
system.l2.demand_mshr_miss_latency::total 357314611748                       # number of demand (read+write) MSHR miss cycles
system.l2.overall_mshr_miss_latency::.switch_cpus.inst 208178634297                       # number of overall MSHR miss cycles
system.l2.overall_mshr_miss_latency::.switch_cpus.data 149135977451                       # number of overall MSHR miss cycles
system.l2.overall_mshr_miss_latency::total 357314611748                       # number of overall MSHR miss cycles
system.l2.demand_mshr_miss_rate::.switch_cpus.inst     0.078151                       # mshr miss rate for demand accesses
system.l2.demand_mshr_miss_rate::.switch_cpus.data     0.229753                       # mshr miss rate for demand accesses
system.l2.demand_mshr_miss_rate::total       0.106292                       # mshr miss rate for demand accesses
system.l2.overall_mshr_miss_rate::.switch_cpus.inst     0.078151                       # mshr miss rate for overall accesses
system.l2.overall_mshr_miss_rate::.switch_cpus.data     0.229753                       # mshr miss rate for overall accesses
system.l2.overall_mshr_miss_rate::total      0.106292                       # mshr miss rate for overall accesses
system.l2.demand_avg_mshr_miss_latency::.switch_cpus.inst 70856.755039                       # average overall mshr miss latency
system.l2.demand_avg_mshr_miss_latency::.switch_cpus.data 75753.954764                       # average overall mshr miss latency
system.l2.demand_avg_mshr_miss_latency::total 72821.628290                       # average overall mshr miss latency
system.l2.overall_avg_mshr_miss_latency::.switch_cpus.inst 70856.755039                       # average overall mshr miss latency
system.l2.overall_avg_mshr_miss_latency::.switch_cpus.data 75753.954764                       # average overall mshr miss latency
system.l2.overall_avg_mshr_miss_latency::total 72821.628290                       # average overall mshr miss latency
system.l2.replacements                        5082501                       # number of replacements
system.l2.WritebackDirty_hits::.writebacks      3474077                       # number of WritebackDirty hits
system.l2.WritebackDirty_hits::total          3474077                       # number of WritebackDirty hits
system.l2.WritebackDirty_accesses::.writebacks      3474077                       # number of WritebackDirty accesses(hits+misses)
system.l2.WritebackDirty_accesses::total      3474077                       # number of WritebackDirty accesses(hits+misses)
system.l2.WritebackClean_hits::.writebacks     37583367                       # number of WritebackClean hits
system.l2.WritebackClean_hits::total         37583367                       # number of WritebackClean hits
system.l2.WritebackClean_accesses::.writebacks     37583367                       # number of WritebackClean accesses(hits+misses)
system.l2.WritebackClean_accesses::total     37583367                       # number of WritebackClean accesses(hits+misses)
system.l2.CleanEvict_mshr_misses::.writebacks       156134                       # number of CleanEvict MSHR misses
system.l2.CleanEvict_mshr_misses::total        156134                       # number of CleanEvict MSHR misses
system.l2.CleanEvict_mshr_miss_rate::.writebacks          inf                       # mshr miss rate for CleanEvict accesses
system.l2.CleanEvict_mshr_miss_rate::total          inf                       # mshr miss rate for CleanEvict accesses
system.l2.UpgradeReq_hits::.switch_cpus.data         7660                       # number of UpgradeReq hits
system.l2.UpgradeReq_hits::total                 7660                       # number of UpgradeReq hits
system.l2.UpgradeReq_misses::.switch_cpus.data          163                       # number of UpgradeReq misses
system.l2.UpgradeReq_misses::total                163                       # number of UpgradeReq misses
system.l2.UpgradeReq_miss_latency::.switch_cpus.data       379999                       # number of UpgradeReq miss cycles
system.l2.UpgradeReq_miss_latency::total       379999                       # number of UpgradeReq miss cycles
system.l2.UpgradeReq_accesses::.switch_cpus.data         7823                       # number of UpgradeReq accesses(hits+misses)
system.l2.UpgradeReq_accesses::total             7823                       # number of UpgradeReq accesses(hits+misses)
system.l2.UpgradeReq_miss_rate::.switch_cpus.data     0.020836                       # miss rate for UpgradeReq accesses
system.l2.UpgradeReq_miss_rate::total        0.020836                       # miss rate for UpgradeReq accesses
system.l2.UpgradeReq_avg_miss_latency::.switch_cpus.data  2331.282209                       # average UpgradeReq miss latency
system.l2.UpgradeReq_avg_miss_latency::total  2331.282209                       # average UpgradeReq miss latency
system.l2.UpgradeReq_mshr_misses::.switch_cpus.data          163                       # number of UpgradeReq MSHR misses
system.l2.UpgradeReq_mshr_misses::total           163                       # number of UpgradeReq MSHR misses
system.l2.UpgradeReq_mshr_miss_latency::.switch_cpus.data      3215500                       # number of UpgradeReq MSHR miss cycles
system.l2.UpgradeReq_mshr_miss_latency::total      3215500                       # number of UpgradeReq MSHR miss cycles
system.l2.UpgradeReq_mshr_miss_rate::.switch_cpus.data     0.020836                       # mshr miss rate for UpgradeReq accesses
system.l2.UpgradeReq_mshr_miss_rate::total     0.020836                       # mshr miss rate for UpgradeReq accesses
system.l2.UpgradeReq_avg_mshr_miss_latency::.switch_cpus.data 19726.993865                       # average UpgradeReq mshr miss latency
system.l2.UpgradeReq_avg_mshr_miss_latency::total 19726.993865                       # average UpgradeReq mshr miss latency
system.l2.ReadExReq_hits::.switch_cpus.data      1269967                       # number of ReadExReq hits
system.l2.ReadExReq_hits::total               1269967                       # number of ReadExReq hits
system.l2.ReadExReq_misses::.switch_cpus.data       556597                       # number of ReadExReq misses
system.l2.ReadExReq_misses::total              556597                       # number of ReadExReq misses
system.l2.ReadExReq_miss_latency::.switch_cpus.data  44150804101                       # number of ReadExReq miss cycles
system.l2.ReadExReq_miss_latency::total   44150804101                       # number of ReadExReq miss cycles
system.l2.ReadExReq_accesses::.switch_cpus.data      1826564                       # number of ReadExReq accesses(hits+misses)
system.l2.ReadExReq_accesses::total           1826564                       # number of ReadExReq accesses(hits+misses)
system.l2.ReadExReq_miss_rate::.switch_cpus.data     0.304724                       # miss rate for ReadExReq accesses
system.l2.ReadExReq_miss_rate::total         0.304724                       # miss rate for ReadExReq accesses
system.l2.ReadExReq_avg_miss_latency::.switch_cpus.data 79322.748957                       # average ReadExReq miss latency
system.l2.ReadExReq_avg_miss_latency::total 79322.748957                       # average ReadExReq miss latency
system.l2.ReadExReq_mshr_misses::.switch_cpus.data       556597                       # number of ReadExReq MSHR misses
system.l2.ReadExReq_mshr_misses::total         556597                       # number of ReadExReq MSHR misses
system.l2.ReadExReq_mshr_miss_latency::.switch_cpus.data  38584833602                       # number of ReadExReq MSHR miss cycles
system.l2.ReadExReq_mshr_miss_latency::total  38584833602                       # number of ReadExReq MSHR miss cycles
system.l2.ReadExReq_mshr_miss_rate::.switch_cpus.data     0.304724                       # mshr miss rate for ReadExReq accesses
system.l2.ReadExReq_mshr_miss_rate::total     0.304724                       # mshr miss rate for ReadExReq accesses
system.l2.ReadExReq_avg_mshr_miss_latency::.switch_cpus.data 69322.748060                       # average ReadExReq mshr miss latency
system.l2.ReadExReq_avg_mshr_miss_latency::total 69322.748060                       # average ReadExReq mshr miss latency
system.l2.ReadCleanReq_hits::.switch_cpus.inst     34655921                       # number of ReadCleanReq hits
system.l2.ReadCleanReq_hits::total           34655921                       # number of ReadCleanReq hits
[...]
system.cpu.itb_walker_cache.tags.warmup_cycle            0                       # Cycle when the warmup percentage was hit.
system.cpu.itb_walker_cache.tags.tag_accesses            0                       # Number of tag accesses
system.cpu.itb_walker_cache.tags.data_accesses            0                       # Number of data accesses
system.cpu.itb.walker.pwrStateResidencyTicks::UNDEFINED 2243752199500                       # Cumulative time (in ticks) in various power states
system.cpu.dtb_walker_cache.pwrStateResidencyTicks::UNDEFINED 2243752199500                       # Cumulative time (in ticks) in various power states
system.cpu.dtb_walker_cache.blocked_cycles::no_mshrs            0                       # number of cycles access was blocked
system.cpu.dtb_walker_cache.blocked_cycles::no_targets            0                       # number of cycles access was blocked
system.cpu.dtb_walker_cache.blocked::no_mshrs            0                       # number of cycles access was blocked
system.cpu.dtb_walker_cache.blocked::no_targets            0                       # number of cycles access was blocked
system.cpu.dtb_walker_cache.avg_blocked_cycles::no_mshrs          nan                       # average number of cycles each access was blocked
system.cpu.dtb_walker_cache.avg_blocked_cycles::no_targets          nan                       # average number of cycles each access was blocked
system.cpu.dtb_walker_cache.replacements            0                       # number of replacements
system.cpu.dtb_walker_cache.tags.pwrStateResidencyTicks::UNDEFINED 2243752199500                       # Cumulative time (in ticks) in various power states
system.cpu.dtb_walker_cache.tags.tagsinuse            0                       # Cycle average of tags in use
system.cpu.dtb_walker_cache.tags.total_refs            0                       # Total number of references to valid blocks.
system.cpu.dtb_walker_cache.tags.sampled_refs            0                       # Sample count of references to valid blocks.
system.cpu.dtb_walker_cache.tags.avg_refs          nan                       # Average number of references to valid blocks.
system.cpu.dtb_walker_cache.tags.warmup_cycle            0                       # Cycle when the warmup percentage was hit.
system.cpu.dtb_walker_cache.tags.tag_accesses            0                       # Number of tag accesses
system.cpu.dtb_walker_cache.tags.data_accesses            0                       # Number of data accesses
system.cpu.dcache.pwrStateResidencyTicks::UNDEFINED 2243752199500                       # Cumulative time (in ticks) in various power states
system.cpu.dcache.demand_hits::.cpu.data    457821593                       # number of demand (read+write) hits
system.cpu.dcache.demand_hits::.switch_cpus.data    261632317                       # number of demand (read+write) hits
system.cpu.dcache.demand_hits::total        719453910                       # number of demand (read+write) hits
system.cpu.dcache.overall_hits::.cpu.data    457833208                       # number of overall hits
system.cpu.dcache.overall_hits::.switch_cpus.data    261955095                       # number of overall hits
system.cpu.dcache.overall_hits::total       719788303                       # number of overall hits
system.cpu.dcache.demand_misses::.cpu.data     14988351                       # number of demand (read+write) misses
system.cpu.dcache.demand_misses::.switch_cpus.data      8562954                       # number of demand (read+write) misses
system.cpu.dcache.demand_misses::total       23551305                       # number of demand (read+write) misses
system.cpu.dcache.overall_misses::.cpu.data     14995372                       # number of overall misses
system.cpu.dcache.overall_misses::.switch_cpus.data      8576524                       # number of overall misses
system.cpu.dcache.overall_misses::total      23571896                       # number of overall misses
system.cpu.dcache.demand_miss_latency::.switch_cpus.data 298876853426                       # number of demand (read+write) miss cycles
system.cpu.dcache.demand_miss_latency::total 298876853426                       # number of demand (read+write) miss cycles
system.cpu.dcache.overall_miss_latency::.switch_cpus.data 298876853426                       # number of overall miss cycles
system.cpu.dcache.overall_miss_latency::total 298876853426                       # number of overall miss cycles
system.cpu.dcache.demand_accesses::.cpu.data    472809944                       # number of demand (read+write) accesses
system.cpu.dcache.demand_accesses::.switch_cpus.data    270195271                       # number of demand (read+write) accesses
system.cpu.dcache.demand_accesses::total    743005215                       # number of demand (read+write) accesses
system.cpu.dcache.overall_accesses::.cpu.data    472828580                       # number of overall (read+write) accesses
system.cpu.dcache.overall_accesses::.switch_cpus.data    270531619                       # number of overall (read+write) accesses
system.cpu.dcache.overall_accesses::total    743360199                       # number of overall (read+write) accesses
system.cpu.dcache.demand_miss_rate::.cpu.data     0.031701                       # miss rate for demand accesses
system.cpu.dcache.demand_miss_rate::.switch_cpus.data     0.031692                       # miss rate for demand accesses
system.cpu.dcache.demand_miss_rate::total     0.031697                       # miss rate for demand accesses
system.cpu.dcache.overall_miss_rate::.cpu.data     0.031714                       # miss rate for overall accesses
system.cpu.dcache.overall_miss_rate::.switch_cpus.data     0.031702                       # miss rate for overall accesses
system.cpu.dcache.overall_miss_rate::total     0.031710                       # miss rate for overall accesses
system.cpu.dcache.demand_avg_miss_latency::.switch_cpus.data 34903.475299                       # average overall miss latency
system.cpu.dcache.demand_avg_miss_latency::total 12690.458275                       # average overall miss latency
system.cpu.dcache.overall_avg_miss_latency::.switch_cpus.data 34848.250110                       # average overall miss latency
system.cpu.dcache.overall_avg_miss_latency::total 12679.372649                       # average overall miss latency
system.cpu.dcache.blocked_cycles::no_mshrs    582034492                       # number of cycles access was blocked
system.cpu.dcache.blocked_cycles::no_targets            0                       # number of cycles access was blocked
system.cpu.dcache.blocked::no_mshrs           8576524                       # number of cycles access was blocked
system.cpu.dcache.blocked::no_targets               0                       # number of cycles access was blocked
system.cpu.dcache.avg_blocked_cycles::no_mshrs    67.863681                       # average number of cycles each access was blocked
system.cpu.dcache.avg_blocked_cycles::no_targets          nan                       # average number of cycles each access was blocked
system.cpu.dcache.writebacks::.writebacks     10132805                       # number of writebacks
system.cpu.dcache.writebacks::total          10132805                       # number of writebacks
system.cpu.dcache.demand_mshr_misses::.switch_cpus.data      8562954                       # number of demand (read+write) MSHR misses
system.cpu.dcache.demand_mshr_misses::total      8562954                       # number of demand (read+write) MSHR misses
system.cpu.dcache.overall_mshr_misses::.switch_cpus.data      8576524                       # number of overall MSHR misses
system.cpu.dcache.overall_mshr_misses::total      8576524                       # number of overall MSHR misses
system.cpu.dcache.demand_mshr_miss_latency::.switch_cpus.data 290313899426                       # number of demand (read+write) MSHR miss cycles
system.cpu.dcache.demand_mshr_miss_latency::total 290313899426                       # number of demand (read+write) MSHR miss cycles
system.cpu.dcache.overall_mshr_miss_latency::.switch_cpus.data 291083135426                       # number of overall MSHR miss cycles
system.cpu.dcache.overall_mshr_miss_latency::total 291083135426                       # number of overall MSHR miss cycles
system.cpu.dcache.demand_mshr_miss_rate::.switch_cpus.data     0.031692                       # mshr miss rate for demand accesses
system.cpu.dcache.demand_mshr_miss_rate::total     0.011525                       # mshr miss rate for demand accesses
system.cpu.dcache.overall_mshr_miss_rate::.switch_cpus.data     0.031702                       # mshr miss rate for overall accesses
system.cpu.dcache.overall_mshr_miss_rate::total     0.011538                       # mshr miss rate for overall accesses
system.cpu.dcache.demand_avg_mshr_miss_latency::.switch_cpus.data 33903.475299                       # average overall mshr miss latency
system.cpu.dcache.demand_avg_mshr_miss_latency::total 33903.475299                       # average overall mshr miss latency
system.cpu.dcache.overall_avg_mshr_miss_latency::.switch_cpus.data 33939.523218                       # average overall mshr miss latency
system.cpu.dcache.overall_avg_mshr_miss_latency::total 33939.523218                       # average overall mshr miss latency
system.cpu.dcache.replacements               23563817                       # number of replacements
system.cpu.dcache.ReadReq_hits::.cpu.data    282359685                       # number of ReadReq hits
system.cpu.dcache.ReadReq_hits::.switch_cpus.data    174714495                       # number of ReadReq hits
system.cpu.dcache.ReadReq_hits::total       457074180                       # number of ReadReq hits
system.cpu.dcache.ReadReq_misses::.cpu.data     11215859                       # number of ReadReq misses
system.cpu.dcache.ReadReq_misses::.switch_cpus.data      6728567                       # number of ReadReq misses
system.cpu.dcache.ReadReq_misses::total      17944426                       # number of ReadReq misses
system.cpu.dcache.ReadReq_miss_latency::.switch_cpus.data 230196797000                       # number of ReadReq miss cycles
system.cpu.dcache.ReadReq_miss_latency::total 230196797000                       # number of ReadReq miss cycles
system.cpu.dcache.ReadReq_accesses::.cpu.data    293575544                       # number of ReadReq accesses(hits+misses)
system.cpu.dcache.ReadReq_accesses::.switch_cpus.data    181443062                       # number of ReadReq accesses(hits+misses)
system.cpu.dcache.ReadReq_accesses::total    475018606                       # number of ReadReq accesses(hits+misses)
system.cpu.dcache.ReadReq_miss_rate::.cpu.data     0.038204                       # miss rate for ReadReq accesses
system.cpu.dcache.ReadReq_miss_rate::.switch_cpus.data     0.037084                       # miss rate for ReadReq accesses
system.cpu.dcache.ReadReq_miss_rate::total     0.037776                       # miss rate for ReadReq accesses
system.cpu.dcache.ReadReq_avg_miss_latency::.switch_cpus.data 34211.860713                       # average ReadReq miss latency
system.cpu.dcache.ReadReq_avg_miss_latency::total 12828.317663                       # average ReadReq miss latency
system.cpu.dcache.ReadReq_mshr_misses::.switch_cpus.data      6728567                       # number of ReadReq MSHR misses
system.cpu.dcache.ReadReq_mshr_misses::total      6728567                       # number of ReadReq MSHR misses
system.cpu.dcache.ReadReq_mshr_miss_latency::.switch_cpus.data 223468230000                       # number of ReadReq MSHR miss cycles
system.cpu.dcache.ReadReq_mshr_miss_latency::total 223468230000                       # number of ReadReq MSHR miss cycles
system.cpu.dcache.ReadReq_mshr_miss_rate::.switch_cpus.data     0.037084                       # mshr miss rate for ReadReq accesses
system.cpu.dcache.ReadReq_mshr_miss_rate::total     0.014165                       # mshr miss rate for ReadReq accesses
system.cpu.dcache.ReadReq_avg_mshr_miss_latency::.switch_cpus.data 33211.860713                       # average ReadReq mshr miss latency
system.cpu.dcache.ReadReq_avg_mshr_miss_latency::total 33211.860713                       # average ReadReq mshr miss latency
system.cpu.dcache.WriteReq_hits::.cpu.data    175461908                       # number of WriteReq hits
system.cpu.dcache.WriteReq_hits::.switch_cpus.data     86917822                       # number of WriteReq hits
system.cpu.dcache.WriteReq_hits::total      262379730                       # number of WriteReq hits
system.cpu.dcache.WriteReq_misses::.cpu.data      3772492                       # number of WriteReq misses
system.cpu.dcache.WriteReq_misses::.switch_cpus.data      1834387                       # number of WriteReq misses
system.cpu.dcache.WriteReq_misses::total      5606879                       # number of WriteReq misses
system.cpu.dcache.WriteReq_miss_latency::.switch_cpus.data  68680056426                       # number of WriteReq miss cycles
system.cpu.dcache.WriteReq_miss_latency::total  68680056426                       # number of WriteReq miss cycles
system.cpu.dcache.WriteReq_accesses::.cpu.data    179234400                       # number of WriteReq accesses(hits+misses)
system.cpu.dcache.WriteReq_accesses::.switch_cpus.data     88752209                       # number of WriteReq accesses(hits+misses)
system.cpu.dcache.WriteReq_accesses::total    267986609                       # number of WriteReq accesses(hits+misses)
system.cpu.dcache.WriteReq_miss_rate::.cpu.data     0.021048                       # miss rate for WriteReq accesses
system.cpu.dcache.WriteReq_miss_rate::.switch_cpus.data     0.020669                       # miss rate for WriteReq accesses
system.cpu.dcache.WriteReq_miss_rate::total     0.020922                       # miss rate for WriteReq accesses
system.cpu.dcache.WriteReq_avg_miss_latency::.switch_cpus.data 37440.330980                       # average WriteReq miss latency
system.cpu.dcache.WriteReq_avg_miss_latency::total 12249.248901                       # average WriteReq miss latency
system.cpu.dcache.WriteReq_mshr_misses::.switch_cpus.data      1834387                       # number of WriteReq MSHR misses
system.cpu.dcache.WriteReq_mshr_misses::total      1834387                       # number of WriteReq MSHR misses
system.cpu.dcache.WriteReq_mshr_miss_latency::.switch_cpus.data  66845669426                       # number of WriteReq MSHR miss cycles
system.cpu.dcache.WriteReq_mshr_miss_latency::total  66845669426                       # number of WriteReq MSHR miss cycles
system.cpu.dcache.WriteReq_mshr_miss_rate::.switch_cpus.data     0.020669                       # mshr miss rate for WriteReq accesses
system.cpu.dcache.WriteReq_mshr_miss_rate::total     0.006845                       # mshr miss rate for WriteReq accesses
system.cpu.dcache.WriteReq_avg_mshr_miss_latency::.switch_cpus.data 36440.330980                       # average WriteReq mshr miss latency
system.cpu.dcache.WriteReq_avg_mshr_miss_latency::total 36440.330980                       # average WriteReq mshr miss latency
system.cpu.dcache.SoftPFReq_hits::.cpu.data        11615                       # number of SoftPFReq hits
system.cpu.dcache.SoftPFReq_hits::.switch_cpus.data       322778                       # number of SoftPFReq hits
system.cpu.dcache.SoftPFReq_hits::total        334393                       # number of SoftPFReq hits
system.cpu.dcache.SoftPFReq_misses::.cpu.data         7021                       # number of SoftPFReq misses
system.cpu.dcache.SoftPFReq_misses::.switch_cpus.data        13570                       # number of SoftPFReq misses
system.cpu.dcache.SoftPFReq_misses::total        20591                       # number of SoftPFReq misses
system.cpu.dcache.SoftPFReq_accesses::.cpu.data        18636                       # number of SoftPFReq accesses(hits+misses)
system.cpu.dcache.SoftPFReq_accesses::.switch_cpus.data       336348                       # number of SoftPFReq accesses(hits+misses)
system.cpu.dcache.SoftPFReq_accesses::total       354984                       # number of SoftPFReq accesses(hits+misses)
system.cpu.dcache.SoftPFReq_miss_rate::.cpu.data     0.376744                       # miss rate for SoftPFReq accesses
system.cpu.dcache.SoftPFReq_miss_rate::.switch_cpus.data     0.040345                       # miss rate for SoftPFReq accesses
system.cpu.dcache.SoftPFReq_miss_rate::total     0.058005                       # miss rate for SoftPFReq accesses
system.cpu.dcache.SoftPFReq_mshr_misses::.switch_cpus.data        13570                       # number of SoftPFReq MSHR misses
system.cpu.dcache.SoftPFReq_mshr_misses::total        13570                       # number of SoftPFReq MSHR misses
system.cpu.dcache.SoftPFReq_mshr_miss_latency::.switch_cpus.data    769236000                       # number of SoftPFReq MSHR miss cycles
system.cpu.dcache.SoftPFReq_mshr_miss_latency::total    769236000                       # number of SoftPFReq MSHR miss cycles
system.cpu.dcache.SoftPFReq_mshr_miss_rate::.switch_cpus.data     0.040345                       # mshr miss rate for SoftPFReq accesses
system.cpu.dcache.SoftPFReq_mshr_miss_rate::total     0.038227                       # mshr miss rate for SoftPFReq accesses
system.cpu.dcache.SoftPFReq_avg_mshr_miss_latency::.switch_cpus.data 56686.514370                       # average SoftPFReq mshr miss latency
system.cpu.dcache.SoftPFReq_avg_mshr_miss_latency::total 56686.514370                       # average SoftPFReq mshr miss latency
system.cpu.dcache.tags.pwrStateResidencyTicks::UNDEFINED 2243752199500                       # Cumulative time (in ticks) in various power states
system.cpu.dcache.tags.tagsinuse           255.998781                       # Cycle average of tags in use
system.cpu.dcache.tags.total_refs           743338394                       # Total number of references to valid blocks.
system.cpu.dcache.tags.sampled_refs          23563817                       # Sample count of references to valid blocks.
system.cpu.dcache.tags.avg_refs             31.545755                       # Average number of references to valid blocks.
system.cpu.dcache.tags.warmup_cycle              1000                       # Cycle when the warmup percentage was hit.
system.cpu.dcache.tags.occ_blocks::.cpu.data   134.970065                       # Average occupied blocks per requestor
system.cpu.dcache.tags.occ_blocks::.switch_cpus.data   121.028715                       # Average occupied blocks per requestor
system.cpu.dcache.tags.occ_percent::.cpu.data     0.527227                       # Average percentage of cache occupancy
system.cpu.dcache.tags.occ_percent::.switch_cpus.data     0.472768                       # Average percentage of cache occupancy
system.cpu.dcache.tags.occ_percent::total     0.999995                       # Average percentage of cache occupancy
system.cpu.dcache.tags.occ_task_id_blocks::1024          256                       # Occupied blocks per task id
system.cpu.dcache.tags.age_task_id_blocks_1024::0           55                       # Occupied blocks per task id
system.cpu.dcache.tags.age_task_id_blocks_1024::1          162                       # Occupied blocks per task id
system.cpu.dcache.tags.age_task_id_blocks_1024::2           38                       # Occupied blocks per task id
system.cpu.dcache.tags.age_task_id_blocks_1024::3            1                       # Occupied blocks per task id
system.cpu.dcache.tags.occ_task_id_percent::1024            1                       # Percentage of cache occupancy per task id
system.cpu.dcache.tags.tag_accesses        1510284471                       # Number of tag accesses
system.cpu.dcache.tags.data_accesses       1510284471                       # Number of data accesses

---------- End Simulation Statistics   ----------
