
---------- Begin Simulation Statistics ----------
final_tick                               1308098505500                       # Number of ticks from beginning of simulation (restored from checkpoints and never reset)
host_inst_rate                                 258541                       # Simulator instruction rate (inst/s)
host_mem_usage                                4396068                       # Number of bytes of host memory used
host_op_rate                                   442326                       # Simulator op (including micro ops) rate (op/s)
host_seconds                                  5801.79                       # Real time elapsed on the host
host_tick_rate                               45795034                       # Simulator tick rate (ticks/s)
sim_freq                                 1000000000000                       # Frequency of simulated ticks
sim_insts                                  1500000001                       # Number of instructions simulated
sim_ops                                    2566282482                       # Number of ops (including micro ops) simulated
sim_seconds                                  0.265693                       # Number of seconds simulated
sim_ticks                                265693397000                       # Number of ticks simulated
system.cpu.committedInsts                           0                       # Number of instructions committed
system.cpu.committedOps                             0                       # Number of ops (including micro ops) committed
system.cpu.dtb.rdAccesses                           0                       # TLB accesses on read requests
system.cpu.dtb.rdMisses                             0                       # TLB misses on read requests
system.cpu.dtb.wrAccesses                           0                       # TLB accesses on write requests
system.cpu.dtb.wrMisses                             0                       # TLB misses on write requests
system.cpu.idle_fraction                            0                       # Percentage of idle cycles
system.cpu.itb.rdAccesses                           0                       # TLB accesses on read requests
system.cpu.itb.rdMisses                             0                       # TLB misses on read requests
system.cpu.itb.wrAccesses                           0                       # TLB accesses on write requests
system.cpu.itb.wrMisses                             0                       # TLB misses on write requests
system.cpu.not_idle_fraction                        1                       # Percentage of non-idle cycles
system.cpu.numCycles                                0                       # number of cpu cycles simulated
system.cpu.numWorkItemsCompleted                    0                       # number of work items this cpu completed
system.cpu.numWorkItemsStarted                      0                       # number of work items this cpu started
system.cpu.num_busy_cycles                          0                       # Number of busy cycles
system.cpu.num_conditional_control_insts            0                       # number of instructions that are conditional controls
system.cpu.num_fp_alu_accesses                      0                       # Number of float alu accesses
system.cpu.num_fp_insts                             0                       # number of float instructions
system.cpu.num_fp_register_reads                    0                       # number of times the floating registers were read
system.cpu.num_fp_register_writes                   0                       # number of times the floating registers were written
system.cpu.num_func_calls                           0                       # number of times a function call or return occured
system.cpu.num_idle_cycles                          0                       # Number of idle cycles
system.cpu.num_int_alu_accesses                     0                       # Number of integer alu accesses
system.cpu.num_int_insts                            0                       # number of integer instructions
system.cpu.num_int_register_reads                   0                       # number of times the integer registers were read
system.cpu.num_int_register_writes                  0                       # number of times the integer registers were written
system.cpu.num_load_insts                           0                       # Number of load instructions
system.cpu.num_mem_refs                             0                       # number of memory refs
system.cpu.num_store_insts                          0                       # Number of store instructions
system.cpu.num_vec_alu_accesses                     0                       # Number of vector alu accesses
system.cpu.num_vec_insts                            0                       # number of vector instructions
system.cpu.num_vec_register_reads                   0                       # number of times the vector registers were read
system.cpu.num_vec_register_writes                  0                       # number of times the vector registers were written
system.cpu.op_class::No_OpClass                     0                       # Class of executed instruction
system.cpu.op_class::IntAlu                         0                       # Class of executed instruction
system.cpu.op_class::IntMult                        0                       # Class of executed instruction
system.cpu.op_class::IntDiv                         0                       # Class of executed instruction
system.cpu.op_class::FloatAdd                       0                       # Class of executed instruction
system.cpu.op_class::FloatCmp                       0                       # Class of executed instruction
system.cpu.op_class::FloatCvt                       0                       # Class of executed instruction
system.cpu.op_class::FloatMult                      0                       # Class of executed instruction
system.cpu.op_class::FloatMultAcc                   0                       # Class of executed instruction
system.cpu.op_class::FloatDiv                       0                       # Class of executed instruction
system.cpu.op_class::FloatMisc                      0                       # Class of executed instruction
system.cpu.op_class::FloatSqrt                      0                       # Class of executed instruction
system.cpu.op_class::SimdAdd                        0                       # Class of executed instruction
system.cpu.op_class::SimdAddAcc                     0                       # Class of executed instruction
system.cpu.op_class::SimdAlu                        0                       # Class of executed instruction
system.cpu.op_class::SimdCmp                        0                       # Class of executed instruction
system.cpu.op_class::SimdCvt                        0                       # Class of executed instruction
system.cpu.op_class::SimdMisc                       0                       # Class of executed instruction
system.cpu.op_class::SimdMult                       0                       # Class of executed instruction
system.cpu.op_class::SimdMultAcc                    0                       # Class of executed instruction
system.cpu.op_class::SimdShift                      0                       # Class of executed instruction
system.cpu.op_class::SimdShiftAcc                   0                       # Class of executed instruction
system.cpu.op_class::SimdDiv                        0                       # Class of executed instruction
system.cpu.op_class::SimdSqrt                       0                       # Class of executed instruction
system.cpu.op_class::SimdFloatAdd                   0                       # Class of executed instruction
system.cpu.op_class::SimdFloatAlu                   0                       # Class of executed instruction
system.cpu.op_class::SimdFloatCmp                   0                       # Class of executed instruction
system.cpu.op_class::SimdFloatCvt                   0                       # Class of executed instruction
system.cpu.op_class::SimdFloatDiv                   0                       # Class of executed instruction
system.cpu.op_class::SimdFloatMisc                  0                       # Class of executed instruction
system.cpu.op_class::SimdFloatMult                  0                       # Class of executed instruction
system.cpu.op_class::SimdFloatMultAcc               0                       # Class of executed instruction
system.cpu.op_class::SimdFloatSqrt                  0                       # Class of executed instruction
system.cpu.op_class::SimdReduceAdd                  0                       # Class of executed instruction
system.cpu.op_class::SimdReduceAlu                  0                       # Class of executed instruction
system.cpu.op_class::SimdReduceCmp                  0                       # Class of executed instruction
system.cpu.op_class::SimdFloatReduceAdd             0                       # Class of executed instruction
system.cpu.op_class::SimdFloatReduceCmp             0                       # Class of executed instruction
system.cpu.op_class::SimdAes                        0                       # Class of executed instruction
system.cpu.op_class::SimdAesMix                     0                       # Class of executed instruction
system.cpu.op_class::SimdSha1Hash                   0                       # Class of executed instruction
system.cpu.op_class::SimdSha1Hash2                  0                       # Class of executed instruction
system.cpu.op_class::SimdSha256Hash                 0                       # Class of executed instruction
system.cpu.op_class::SimdSha256Hash2                0                       # Class of executed instruction
system.cpu.op_class::SimdShaSigma2                  0                       # Class of executed instruction
system.cpu.op_class::SimdShaSigma3                  0                       # Class of executed instruction
system.cpu.op_class::SimdPredAlu                    0                       # Class of executed instruction
system.cpu.op_class::MemRead                        0                       # Class of executed instruction
system.cpu.op_class::MemWrite                       0                       # Class of executed instruction
system.cpu.op_class::FloatMemRead                   0                       # Class of executed instruction
system.cpu.op_class::FloatMemWrite                  0                       # Class of executed instruction
system.cpu.op_class::IprAccess                      0                       # Class of executed instruction
system.cpu.op_class::InstPrefetch                   0                       # Class of executed instruction
system.cpu.op_class::total                          0                       # Class of executed instruction
system.cpu.workload.numSyscalls                     3                       # Number of system calls
system.membus.snoop_filter.hit_multi_requests            0                       # Number of requests hitting in the snoop filter with multiple (>1) holders of the requested data.
system.membus.snoop_filter.hit_multi_snoops            0                       # Number of snoops hitting in the snoop filter with multiple (>1) holders of the requested data.
system.membus.snoop_filter.hit_single_requests       176277                       # Number of requests hitting in the snoop filter with a single holder of the requested data.
system.membus.snoop_filter.hit_single_snoops            0                       # Number of snoops hitting in the snoop filter with a single holder of the requested data.
system.membus.snoop_filter.tot_requests        352551                       # Total number of requests made to the snoop filter.
system.membus.snoop_filter.tot_snoops               0                       # Total number of snoops made to the snoop filter.
system.switch_cpus.branchPred.BTBCorrect            0                       # Number of correct BTB predictions (this stat may not work properly.
system.switch_cpus.branchPred.BTBHitPct      0.000000                       # BTB Hit Percentage
system.switch_cpus.branchPred.BTBHits               0                       # Number of BTB hits
system.switch_cpus.branchPred.BTBLookups    166655810                       # Number of BTB lookups
system.switch_cpus.branchPred.RASInCorrect         4963                       # Number of incorrect RAS predictions.
system.switch_cpus.branchPred.condIncorrect     21698582                       # Number of conditional branches incorrect
system.switch_cpus.branchPred.condPredicted    142185129                       # Number of conditional branches predicted
system.switch_cpus.branchPred.indirectHits     43550453                       # Number of indirect target hits.
system.switch_cpus.branchPred.indirectLookups    166655810                       # Number of indirect predictor lookups.
system.switch_cpus.branchPred.indirectMisses    123105357                       # Number of indirect misses.
system.switch_cpus.branchPred.lookups       190277774                       # Number of BP lookups
system.switch_cpus.branchPred.usedRAS        17904187                       # Number of times the RAS was used to get a target.
system.switch_cpus.branchPredindirectMispredicted     18466163                       # Number of mispredicted indirect branches.
system.switch_cpus.cc_regfile_reads         480898869                       # number of cc regfile reads
system.switch_cpus.cc_regfile_writes        445325976                       # number of cc regfile writes
system.switch_cpus.commit.amos                      0                       # Number of atomic instructions committed
system.switch_cpus.commit.branchMispredicts     21698758                       # The number of times a branch was mispredicted
system.switch_cpus.commit.branches           75086694                       # Number of branches committed
system.switch_cpus.commit.bw_lim_events      42601973                       # number cycles where commit BW limit reached
system.switch_cpus.commit.commitNonSpecStalls            3                       # The number of times commit has been forced to stall to communicate backwards
system.switch_cpus.commit.commitSquashedInsts    677703046                       # The number of squashed insts skipped by commit
system.switch_cpus.commit.committedInsts    500000001                       # Number of instructions committed
system.switch_cpus.commit.committedOps      839678819                       # Number of ops (including micro ops) committed
system.switch_cpus.commit.committed_per_cycle::samples    427976236                       # Number of insts commited each cycle
system.switch_cpus.commit.committed_per_cycle::mean     1.961975                       # Number of insts commited each cycle
system.switch_cpus.commit.committed_per_cycle::stdev     2.604320                       # Number of insts commited each cycle
system.switch_cpus.commit.committed_per_cycle::underflows            0      0.00%      0.00% # Number of insts commited each cycle
system.switch_cpus.commit.committed_per_cycle::0    188348870     44.01%     44.01% # Number of insts commited each cycle
system.switch_cpus.commit.committed_per_cycle::1     75931704     17.74%     61.75% # Number of insts commited each cycle
system.switch_cpus.commit.committed_per_cycle::2     39547744      9.24%     70.99% # Number of insts commited each cycle
system.switch_cpus.commit.committed_per_cycle::3     33288545      7.78%     78.77% # Number of insts commited each cycle
system.switch_cpus.commit.committed_per_cycle::4     20362169      4.76%     83.53% # Number of insts commited each cycle
system.switch_cpus.commit.committed_per_cycle::5     11474831      2.68%     86.21% # Number of insts commited each cycle
system.switch_cpus.commit.committed_per_cycle::6      9795426      2.29%     88.50% # Number of insts commited each cycle
system.switch_cpus.commit.committed_per_cycle::7      6624974      1.55%     90.05% # Number of insts commited each cycle
system.switch_cpus.commit.committed_per_cycle::8     42601973      9.95%    100.00% # Number of insts commited each cycle
system.switch_cpus.commit.committed_per_cycle::overflows            0      0.00%    100.00% # Number of insts commited each cycle
system.switch_cpus.commit.committed_per_cycle::min_value            0                       # Number of insts commited each cycle
system.switch_cpus.commit.committed_per_cycle::max_value            8                       # Number of insts commited each cycle
system.switch_cpus.commit.committed_per_cycle::total    427976236                       # Number of insts commited each cycle
system.switch_cpus.commit.fp_insts             818338                       # Number of committed floating point instructions.
system.switch_cpus.commit.function_calls     10052312                       # Number of function calls committed.
system.switch_cpus.commit.int_insts         836921134                       # Number of committed integer instructions.
system.switch_cpus.commit.loads             123874952                       # Number of loads committed
system.switch_cpus.commit.membars                   0                       # Number of memory barriers committed
system.switch_cpus.commit.op_class_0::No_OpClass      2112896      0.25%      0.25% # Class of committed instruction
system.switch_cpus.commit.op_class_0::IntAlu    650240730     77.44%     77.69% # Class of committed instruction
system.switch_cpus.commit.op_class_0::IntMult      6520113      0.78%     78.47% # Class of committed instruction
system.switch_cpus.commit.op_class_0::IntDiv      1503927      0.18%     78.65% # Class of committed instruction
system.switch_cpus.commit.op_class_0::FloatAdd           60      0.00%     78.65% # Class of committed instruction
system.switch_cpus.commit.op_class_0::FloatCmp            0      0.00%     78.65% # Class of committed instruction
system.switch_cpus.commit.op_class_0::FloatCvt            0      0.00%     78.65% # Class of committed instruction
system.switch_cpus.commit.op_class_0::FloatMult            0      0.00%     78.65% # Class of committed instruction
system.switch_cpus.commit.op_class_0::FloatMultAcc            0      0.00%     78.65% # Class of committed instruction
system.switch_cpus.commit.op_class_0::FloatDiv            0      0.00%     78.65% # Class of committed instruction
system.switch_cpus.commit.op_class_0::FloatMisc            0      0.00%     78.65% # Class of committed instruction
system.switch_cpus.commit.op_class_0::FloatSqrt            0      0.00%     78.65% # Class of committed instruction
system.switch_cpus.commit.op_class_0::SimdAdd            0      0.00%     78.65% # Class of committed instruction
system.switch_cpus.commit.op_class_0::SimdAddAcc            0      0.00%     78.65% # Class of committed instruction
system.switch_cpus.commit.op_class_0::SimdAlu       204480      0.02%     78.67% # Class of committed instruction
system.switch_cpus.commit.op_class_0::SimdCmp            0      0.00%     78.67% # Class of committed instruction
system.switch_cpus.commit.op_class_0::SimdCvt          292      0.00%     78.67% # Class of committed instruction
system.switch_cpus.commit.op_class_0::SimdMisc          577      0.00%     78.67% # Class of committed instruction
system.switch_cpus.commit.op_class_0::SimdMult            0      0.00%     78.67% # Class of committed instruction
system.switch_cpus.commit.op_class_0::SimdMultAcc            0      0.00%     78.67% # Class of committed instruction
system.switch_cpus.commit.op_class_0::SimdShift            0      0.00%     78.67% # Class of committed instruction
system.switch_cpus.commit.op_class_0::SimdShiftAcc            0      0.00%     78.67% # Class of committed instruction
system.switch_cpus.commit.op_class_0::SimdDiv            0      0.00%     78.67% # Class of committed instruction
system.switch_cpus.commit.op_class_0::SimdSqrt            0      0.00%     78.67% # Class of committed instruction
system.switch_cpus.commit.op_class_0::SimdFloatAdd            0      0.00%     78.67% # Class of committed instruction
system.switch_cpus.commit.op_class_0::SimdFloatAlu            0      0.00%     78.67% # Class of committed instruction
system.switch_cpus.commit.op_class_0::SimdFloatCmp            0      0.00%     78.67% # Class of committed instruction
system.switch_cpus.commit.op_class_0::SimdFloatCvt            0      0.00%     78.67% # Class of committed instruction
system.switch_cpus.commit.op_class_0::SimdFloatDiv            0      0.00%     78.67% # Class of committed instruction
system.switch_cpus.commit.op_class_0::SimdFloatMisc            0      0.00%     78.67% # Class of committed instruction
system.switch_cpus.commit.op_class_0::SimdFloatMult            0      0.00%     78.67% # Class of committed instruction
system.switch_cpus.commit.op_class_0::SimdFloatMultAcc            0      0.00%     78.67% # Class of committed instruction
system.switch_cpus.commit.op_class_0::SimdFloatSqrt            0      0.00%     78.67% # Class of committed instruction
system.switch_cpus.commit.op_class_0::SimdReduceAdd            0      0.00%     78.67% # Class of committed instruction
system.switch_cpus.commit.op_class_0::SimdReduceAlu            0      0.00%     78.67% # Class of committed instruction
system.switch_cpus.commit.op_class_0::SimdReduceCmp            0      0.00%     78.67% # Class of committed instruction
system.switch_cpus.commit.op_class_0::SimdFloatReduceAdd            0      0.00%     78.67% # Class of committed instruction
system.switch_cpus.commit.op_class_0::SimdFloatReduceCmp            0      0.00%     78.67% # Class of committed instruction
system.switch_cpus.commit.op_class_0::SimdAes            0      0.00%     78.67% # Class of committed instruction
system.switch_cpus.commit.op_class_0::SimdAesMix            0      0.00%     78.67% # Class of committed instruction
system.switch_cpus.commit.op_class_0::SimdSha1Hash            0      0.00%     78.67% # Class of committed instruction
system.switch_cpus.commit.op_class_0::SimdSha1Hash2            0      0.00%     78.67% # Class of committed instruction
system.switch_cpus.commit.op_class_0::SimdSha256Hash            0      0.00%     78.67% # Class of committed instruction
system.switch_cpus.commit.op_class_0::SimdSha256Hash2            0      0.00%     78.67% # Class of committed instruction
system.switch_cpus.commit.op_class_0::SimdShaSigma2            0      0.00%     78.67% # Class of committed instruction
system.switch_cpus.commit.op_class_0::SimdShaSigma3            0      0.00%     78.67% # Class of committed instruction
system.switch_cpus.commit.op_class_0::SimdPredAlu            0      0.00%     78.67% # Class of committed instruction
system.switch_cpus.commit.op_class_0::MemRead    123874733     14.75%     93.42% # Class of committed instruction
system.switch_cpus.commit.op_class_0::MemWrite     54608255      6.50%     99.93% # Class of committed instruction
system.switch_cpus.commit.op_class_0::FloatMemRead          219      0.00%     99.93% # Class of committed instruction
system.switch_cpus.commit.op_class_0::FloatMemWrite       612536      0.07%    100.00% # Class of committed instruction
system.switch_cpus.commit.op_class_0::IprAccess            0      0.00%    100.00% # Class of committed instruction
system.switch_cpus.commit.op_class_0::InstPrefetch            0      0.00%    100.00% # Class of committed instruction
system.switch_cpus.commit.op_class_0::total    839678818                       # Class of committed instruction
system.switch_cpus.commit.refs              179095743                       # Number of memory references committed
system.switch_cpus.commit.swp_count                 0                       # Number of s/w prefetches committed
system.switch_cpus.commit.vec_insts                 0                       # Number of committed Vector instructions.
system.switch_cpus.committedInsts           500000000                       # Number of Instructions Simulated
system.switch_cpus.committedOps             839678818                       # Number of Ops (including micro ops) Simulated
system.switch_cpus.cpi                       1.062774                       # CPI: Cycles Per Instruction
system.switch_cpus.cpi_total                 1.062774                       # CPI: Total CPI of All Threads
system.switch_cpus.decode.BlockedCycles     106366124                       # Number of cycles decode is blocked
system.switch_cpus.decode.DecodedInsts     1857687867                       # Number of instructions handled by decode
system.switch_cpus.decode.IdleCycles        132316142                       # Number of cycles decode is idle
system.switch_cpus.decode.RunCycles         247392932                       # Number of cycles decode is running
system.switch_cpus.decode.SquashCycles       21877734                       # Number of cycles decode is squashing
system.switch_cpus.decode.UnblockCycles      21595682                       # Number of cycles decode is unblocking
system.switch_cpus.dtb.rdAccesses           184294175                       # TLB accesses on read requests
system.switch_cpus.dtb.rdMisses                291514                       # TLB misses on read requests
system.switch_cpus.dtb.wrAccesses            70666208                       # TLB accesses on write requests
system.switch_cpus.dtb.wrMisses                 28350                       # TLB misses on write requests
system.switch_cpus.fetch.Branches           190277774                       # Number of branches that fetch encountered
system.switch_cpus.fetch.CacheLines         135137150                       # Number of cache lines fetched
system.switch_cpus.fetch.Cycles             344656803                       # Number of cycles fetch has run and was not squashing or blocked
system.switch_cpus.fetch.IcacheSquashes       5844563                       # Number of outstanding Icache misses that were squashed
system.switch_cpus.fetch.IcacheWaitRetryStallCycles          191                       # Number of stall cycles due to full MSHR
system.switch_cpus.fetch.Insts             1175650988                       # Number of instructions fetch has processed
system.switch_cpus.fetch.MiscStallCycles          231                       # Number of cycles fetch has spent waiting on interrupts, or bad addresses, or out of MSHRs
system.switch_cpus.fetch.PendingTrapStallCycles         1400                       # Number of stall cycles due to pending traps
system.switch_cpus.fetch.SquashCycles        43755468                       # Number of cycles fetch has spent squashing
system.switch_cpus.fetch.branchRate          0.358078                       # Number of branch fetches per cycle
system.switch_cpus.fetch.icacheStallCycles    163012262                       # Number of cycles fetch is stalled on an Icache miss
system.switch_cpus.fetch.predictedBranches     61454640                       # Number of branches that fetch has predicted taken
system.switch_cpus.fetch.rate                2.212420                       # Number of inst fetches per cycle
system.switch_cpus.fetch.rateDist::samples    529548621                       # Number of instructions fetched each cycle (Total)
system.switch_cpus.fetch.rateDist::mean      3.789473                       # Number of instructions fetched each cycle (Total)
system.switch_cpus.fetch.rateDist::stdev     3.617625                       # Number of instructions fetched each cycle (Total)
system.switch_cpus.fetch.rateDist::underflows            0      0.00%      0.00% # Number of instructions fetched each cycle (Total)
system.switch_cpus.fetch.rateDist::0        220458691     41.63%     41.63% # Number of instructions fetched each cycle (Total)
system.switch_cpus.fetch.rateDist::1         15282124      2.89%     44.52% # Number of instructions fetched each cycle (Total)
system.switch_cpus.fetch.rateDist::2         11887483      2.24%     46.76% # Number of instructions fetched each cycle (Total)
system.switch_cpus.fetch.rateDist::3         17720844      3.35%     50.11% # Number of instructions fetched each cycle (Total)
system.switch_cpus.fetch.rateDist::4         14969803      2.83%     52.94% # Number of instructions fetched each cycle (Total)
system.switch_cpus.fetch.rateDist::5         28681373      5.42%     58.35% # Number of instructions fetched each cycle (Total)
system.switch_cpus.fetch.rateDist::6         19228396      3.63%     61.98% # Number of instructions fetched each cycle (Total)
system.switch_cpus.fetch.rateDist::7         14725112      2.78%     64.76% # Number of instructions fetched each cycle (Total)
system.switch_cpus.fetch.rateDist::8        186594795     35.24%    100.00% # Number of instructions fetched each cycle (Total)
system.switch_cpus.fetch.rateDist::overflows            0      0.00%    100.00% # Number of instructions fetched each cycle (Total)
system.switch_cpus.fetch.rateDist::min_value            0                       # Number of instructions fetched each cycle (Total)
system.switch_cpus.fetch.rateDist::max_value            8                       # Number of instructions fetched each cycle (Total)
system.switch_cpus.fetch.rateDist::total    529548621                       # Number of instructions fetched each cycle (Total)
system.switch_cpus.fp_regfile_reads           1297365                       # number of floating regfile reads
system.switch_cpus.fp_regfile_writes           299944                       # number of floating regfile writes
system.switch_cpus.idleCycles                 1838173                       # Total number of cycles that the CPU has spent unscheduled due to idling
system.switch_cpus.iew.branchMispredicts     29685177                       # Number of branch mispredicts detected at execute
system.switch_cpus.iew.exec_branches        102591821                       # Number of branches executed
system.switch_cpus.iew.exec_nop                     0                       # number of nop insts executed
system.switch_cpus.iew.exec_rate             2.276978                       # Inst execution rate
system.switch_cpus.iew.exec_refs            254956164                       # number of memory reference insts executed
system.switch_cpus.iew.exec_stores           70666194                       # Number of stores executed
system.switch_cpus.iew.exec_swp                     0                       # number of swp insts executed
system.switch_cpus.iew.iewBlockCycles        84416580                       # Number of cycles IEW is blocking
system.switch_cpus.iew.iewDispLoadInsts     227252276                       # Number of dispatched load instructions
system.switch_cpus.iew.iewDispNonSpecInsts           15                       # Number of dispatched non-speculative instructions
system.switch_cpus.iew.iewDispSquashedInsts      2742030                       # Number of squashed instructions skipped by dispatch
system.switch_cpus.iew.iewDispStoreInsts     99670142                       # Number of dispatched store instructions
system.switch_cpus.iew.iewDispatchedInsts   1517379332                       # Number of instructions dispatched to IQ
system.switch_cpus.iew.iewExecLoadInsts     184289970                       # Number of load instructions executed
system.switch_cpus.iew.iewExecSquashedInsts     55576805                       # Number of squashed instructions skipped in execute
system.switch_cpus.iew.iewExecutedInsts    1209956079                       # Number of executed instructions
system.switch_cpus.iew.iewIQFullEvents         144094                       # Number of times the IQ has become full, causing a stall
system.switch_cpus.iew.iewIdleCycles                0                       # Number of cycles IEW is idle
system.switch_cpus.iew.iewLSQFullEvents         72529                       # Number of times the LSQ has become full, causing a stall
system.switch_cpus.iew.iewSquashCycles       21877734                       # Number of cycles IEW is squashing
system.switch_cpus.iew.iewUnblockCycles        260747                       # Number of cycles IEW is unblocking
system.switch_cpus.iew.lsq.thread0.blockedLoads            0                       # Number of blocked loads due to partial load-store forwarding
system.switch_cpus.iew.lsq.thread0.cacheBlocked          634                       # Number of times an access to memory failed due to the cache being blocked
system.switch_cpus.iew.lsq.thread0.forwLoads     18241772                       # Number of loads that had data forwarded from stores
system.switch_cpus.iew.lsq.thread0.ignoredResponses       325236                       # Number of memory responses ignored because the instruction is squashed
system.switch_cpus.iew.lsq.thread0.invAddrLoads            0                       # Number of loads ignored due to an invalid address
system.switch_cpus.iew.lsq.thread0.invAddrSwpfs            0                       # Number of software prefetches ignored due to an invalid address
system.switch_cpus.iew.lsq.thread0.memOrderViolation       212640                       # Number of memory ordering violations
system.switch_cpus.iew.lsq.thread0.rescheduledLoads        56127                       # Number of loads that were rescheduled
system.switch_cpus.iew.lsq.thread0.squashedLoads    103377320                       # Number of loads squashed
system.switch_cpus.iew.lsq.thread0.squashedStores     44449351                       # Number of stores squashed
system.switch_cpus.iew.memOrderViolationEvents       212640                       # Number of memory order violations
system.switch_cpus.iew.predictedNotTakenIncorrect     26551599                       # Number of branches that were predicted not taken incorrectly
system.switch_cpus.iew.predictedTakenIncorrect      3133578                       # Number of branches that were predicted taken incorrectly
system.switch_cpus.iew.wb_consumers        1423131917                       # num instructions consuming a value
system.switch_cpus.iew.wb_count            1185429213                       # cumulative count of insts written-back
system.switch_cpus.iew.wb_fanout             0.624046                       # average fanout of values written-back
system.switch_cpus.iew.wb_producers         888100074                       # num instructions producing a value
system.switch_cpus.iew.wb_rate               2.230822                       # insts written-back per cycle
system.switch_cpus.iew.wb_sent             1194962783                       # cumulative count of insts sent to commit
system.switch_cpus.int_regfile_reads       1804034987                       # number of integer regfile reads
system.switch_cpus.int_regfile_writes      1019623401                       # number of integer regfile writes
system.switch_cpus.ipc                       0.940934                       # IPC: Instructions Per Cycle
system.switch_cpus.ipc_total                 0.940934                       # IPC: Total IPC of All Threads
system.switch_cpus.iq.FU_type_0::No_OpClass     11611483      0.92%      0.92% # Type of FU issued
system.switch_cpus.iq.FU_type_0::IntAlu     972369039     76.83%     77.75% # Type of FU issued
system.switch_cpus.iq.FU_type_0::IntMult      6914027      0.55%     78.30% # Type of FU issued
system.switch_cpus.iq.FU_type_0::IntDiv       1538864      0.12%     78.42% # Type of FU issued
system.switch_cpus.iq.FU_type_0::FloatAdd           63      0.00%     78.42% # Type of FU issued
system.switch_cpus.iq.FU_type_0::FloatCmp            0      0.00%     78.42% # Type of FU issued
system.switch_cpus.iq.FU_type_0::FloatCvt            0      0.00%     78.42% # Type of FU issued
system.switch_cpus.iq.FU_type_0::FloatMult            0      0.00%     78.42% # Type of FU issued
system.switch_cpus.iq.FU_type_0::FloatMultAcc            0      0.00%     78.42% # Type of FU issued
system.switch_cpus.iq.FU_type_0::FloatDiv            0      0.00%     78.42% # Type of FU issued
system.switch_cpus.iq.FU_type_0::FloatMisc            0      0.00%     78.42% # Type of FU issued
system.switch_cpus.iq.FU_type_0::FloatSqrt            0      0.00%     78.42% # Type of FU issued
system.switch_cpus.iq.FU_type_0::SimdAdd            0      0.00%     78.42% # Type of FU issued
system.switch_cpus.iq.FU_type_0::SimdAddAcc            0      0.00%     78.42% # Type of FU issued
system.switch_cpus.iq.FU_type_0::SimdAlu       304716      0.02%     78.44% # Type of FU issued
system.switch_cpus.iq.FU_type_0::SimdCmp            0      0.00%     78.44% # Type of FU issued
system.switch_cpus.iq.FU_type_0::SimdCvt          300      0.00%     78.44% # Type of FU issued
system.switch_cpus.iq.FU_type_0::SimdMisc          595      0.00%     78.44% # Type of FU issued
system.switch_cpus.iq.FU_type_0::SimdMult            0      0.00%     78.44% # Type of FU issued
system.switch_cpus.iq.FU_type_0::SimdMultAcc            0      0.00%     78.44% # Type of FU issued
system.switch_cpus.iq.FU_type_0::SimdShift            0      0.00%     78.44% # Type of FU issued
system.switch_cpus.iq.FU_type_0::SimdShiftAcc            0      0.00%     78.44% # Type of FU issued
system.switch_cpus.iq.FU_type_0::SimdDiv            0      0.00%     78.44% # Type of FU issued
system.switch_cpus.iq.FU_type_0::SimdSqrt            0      0.00%     78.44% # Type of FU issued
system.switch_cpus.iq.FU_type_0::SimdFloatAdd            0      0.00%     78.44% # Type of FU issued
system.switch_cpus.iq.FU_type_0::SimdFloatAlu            0      0.00%     78.44% # Type of FU issued
system.switch_cpus.iq.FU_type_0::SimdFloatCmp            0      0.00%     78.44% # Type of FU issued
system.switch_cpus.iq.FU_type_0::SimdFloatCvt            1      0.00%     78.44% # Type of FU issued
system.switch_cpus.iq.FU_type_0::SimdFloatDiv            0      0.00%     78.44% # Type of FU issued
system.switch_cpus.iq.FU_type_0::SimdFloatMisc            0      0.00%     78.44% # Type of FU issued
system.switch_cpus.iq.FU_type_0::SimdFloatMult            0      0.00%     78.44% # Type of FU issued
system.switch_cpus.iq.FU_type_0::SimdFloatMultAcc            0      0.00%     78.44% # Type of FU issued
system.switch_cpus.iq.FU_type_0::SimdFloatSqrt            0      0.00%     78.44% # Type of FU issued
system.switch_cpus.iq.FU_type_0::SimdReduceAdd            0      0.00%     78.44% # Type of FU issued
system.switch_cpus.iq.FU_type_0::SimdReduceAlu            0      0.00%     78.44% # Type of FU issued
system.switch_cpus.iq.FU_type_0::SimdReduceCmp            0      0.00%     78.44% # Type of FU issued
system.switch_cpus.iq.FU_type_0::SimdFloatReduceAdd            0      0.00%     78.44% # Type of FU issued
system.switch_cpus.iq.FU_type_0::SimdFloatReduceCmp            0      0.00%     78.44% # Type of FU issued
system.switch_cpus.iq.FU_type_0::SimdAes            0      0.00%     78.44% # Type of FU issued
system.switch_cpus.iq.FU_type_0::SimdAesMix            0      0.00%     78.44% # Type of FU issued
system.switch_cpus.iq.FU_type_0::SimdSha1Hash            0      0.00%     78.44% # Type of FU issued
system.switch_cpus.iq.FU_type_0::SimdSha1Hash2            0      0.00%     78.44% # Type of FU issued
system.switch_cpus.iq.FU_type_0::SimdSha256Hash            0      0.00%     78.44% # Type of FU issued
system.switch_cpus.iq.FU_type_0::SimdSha256Hash2            0      0.00%     78.44% # Type of FU issued
system.switch_cpus.iq.FU_type_0::SimdShaSigma2            0      0.00%     78.44% # Type of FU issued
system.switch_cpus.iq.FU_type_0::SimdShaSigma3            0      0.00%     78.44% # Type of FU issued
system.switch_cpus.iq.FU_type_0::SimdPredAlu            0      0.00%     78.44% # Type of FU issued
system.switch_cpus.iq.FU_type_0::MemRead    196702452     15.54%     93.99% # Type of FU issued
system.switch_cpus.iq.FU_type_0::MemWrite     75372396      5.96%     99.94% # Type of FU issued
system.switch_cpus.iq.FU_type_0::FloatMemRead          274      0.00%     99.94% # Type of FU issued
system.switch_cpus.iq.FU_type_0::FloatMemWrite       718681      0.06%    100.00% # Type of FU issued
system.switch_cpus.iq.FU_type_0::IprAccess            0      0.00%    100.00% # Type of FU issued
system.switch_cpus.iq.FU_type_0::InstPrefetch            0      0.00%    100.00% # Type of FU issued
system.switch_cpus.iq.FU_type_0::total     1265532891                       # Type of FU issued
system.switch_cpus.iq.fp_alu_accesses         1136654                       # Number of floating point alu accesses
system.switch_cpus.iq.fp_inst_queue_reads      2161990                       # Number of floating instruction queue reads
system.switch_cpus.iq.fp_inst_queue_wakeup_accesses       997202                       # Number of floating instruction queue wakeup accesses
system.switch_cpus.iq.fp_inst_queue_writes      1255306                       # Number of floating instruction queue writes
system.switch_cpus.iq.fu_busy_cnt            18885614                       # FU busy when requested
system.switch_cpus.iq.fu_busy_rate           0.014923                       # FU busy rate (busy events/executed inst)
system.switch_cpus.iq.fu_full::No_OpClass            0      0.00%      0.00% # attempts to use FU when none available
system.switch_cpus.iq.fu_full::IntAlu        15546810     82.32%     82.32% # attempts to use FU when none available
system.switch_cpus.iq.fu_full::IntMult              0      0.00%     82.32% # attempts to use FU when none available
system.switch_cpus.iq.fu_full::IntDiv               0      0.00%     82.32% # attempts to use FU when none available
system.switch_cpus.iq.fu_full::FloatAdd             0      0.00%     82.32% # attempts to use FU when none available
system.switch_cpus.iq.fu_full::FloatCmp             0      0.00%     82.32% # attempts to use FU when none available
system.switch_cpus.iq.fu_full::FloatCvt             0      0.00%     82.32% # attempts to use FU when none available
system.switch_cpus.iq.fu_full::FloatMult            0      0.00%     82.32% # attempts to use FU when none available
system.switch_cpus.iq.fu_full::FloatMultAcc            0      0.00%     82.32% # attempts to use FU when none available
system.switch_cpus.iq.fu_full::FloatDiv             0      0.00%     82.32% # attempts to use FU when none available
system.switch_cpus.iq.fu_full::FloatMisc            0      0.00%     82.32% # attempts to use FU when none available
system.switch_cpus.iq.fu_full::FloatSqrt            0      0.00%     82.32% # attempts to use FU when none available
system.switch_cpus.iq.fu_full::SimdAdd              0      0.00%     82.32% # attempts to use FU when none available
system.switch_cpus.iq.fu_full::SimdAddAcc            0      0.00%     82.32% # attempts to use FU when none available
system.switch_cpus.iq.fu_full::SimdAlu             11      0.00%     82.32% # attempts to use FU when none available
system.switch_cpus.iq.fu_full::SimdCmp              0      0.00%     82.32% # attempts to use FU when none available
system.switch_cpus.iq.fu_full::SimdCvt              0      0.00%     82.32% # attempts to use FU when none available
system.switch_cpus.iq.fu_full::SimdMisc             7      0.00%     82.32% # attempts to use FU when none available
system.switch_cpus.iq.fu_full::SimdMult             0      0.00%     82.32% # attempts to use FU when none available
system.switch_cpus.iq.fu_full::SimdMultAcc            0      0.00%     82.32% # attempts to use FU when none available
system.switch_cpus.iq.fu_full::SimdShift            0      0.00%     82.32% # attempts to use FU when none available
system.switch_cpus.iq.fu_full::SimdShiftAcc            0      0.00%     82.32% # attempts to use FU when none available
system.switch_cpus.iq.fu_full::SimdDiv              0      0.00%     82.32% # attempts to use FU when none available
system.switch_cpus.iq.fu_full::SimdSqrt             0      0.00%     82.32% # attempts to use FU when none available
system.switch_cpus.iq.fu_full::SimdFloatAdd            0      0.00%     82.32% # attempts to use FU when none available
system.switch_cpus.iq.fu_full::SimdFloatAlu            0      0.00%     82.32% # attempts to use FU when none available
system.switch_cpus.iq.fu_full::SimdFloatCmp            0      0.00%     82.32% # attempts to use FU when none available
system.switch_cpus.iq.fu_full::SimdFloatCvt            0      0.00%     82.32% # attempts to use FU when none available
system.switch_cpus.iq.fu_full::SimdFloatDiv            0      0.00%     82.32% # attempts to use FU when none available
system.switch_cpus.iq.fu_full::SimdFloatMisc            0      0.00%     82.32% # attempts to use FU when none available
system.switch_cpus.iq.fu_full::SimdFloatMult            0      0.00%     82.32% # attempts to use FU when none available
system.switch_cpus.iq.fu_full::SimdFloatMultAcc            0      0.00%     82.32% # attempts to use FU when none available
system.switch_cpus.iq.fu_full::SimdFloatSqrt            0      0.00%     82.32% # attempts to use FU when none available
system.switch_cpus.iq.fu_full::SimdReduceAdd            0      0.00%     82.32% # attempts to use FU when none available
system.switch_cpus.iq.fu_full::SimdReduceAlu            0      0.00%     82.32% # attempts to use FU when none available
system.switch_cpus.iq.fu_full::SimdReduceCmp            0      0.00%     82.32% # attempts to use FU when none available
system.switch_cpus.iq.fu_full::SimdFloatReduceAdd            0      0.00%     82.32% # attempts to use FU when none available
system.switch_cpus.iq.fu_full::SimdFloatReduceCmp            0      0.00%     82.32% # attempts to use FU when none available
system.switch_cpus.iq.fu_full::SimdAes              0      0.00%     82.32% # attempts to use FU when none available
system.switch_cpus.iq.fu_full::SimdAesMix            0      0.00%     82.32% # attempts to use FU when none available
system.switch_cpus.iq.fu_full::SimdSha1Hash            0      0.00%     82.32% # attempts to use FU when none available
system.switch_cpus.iq.fu_full::SimdSha1Hash2            0      0.00%     82.32% # attempts to use FU when none available
system.switch_cpus.iq.fu_full::SimdSha256Hash            0      0.00%     82.32% # attempts to use FU when none available
system.switch_cpus.iq.fu_full::SimdSha256Hash2            0      0.00%     82.32% # attempts to use FU when none available
system.switch_cpus.iq.fu_full::SimdShaSigma2            0      0.00%     82.32% # attempts to use FU when none available
system.switch_cpus.iq.fu_full::SimdShaSigma3            0      0.00%     82.32% # attempts to use FU when none available
system.switch_cpus.iq.fu_full::SimdPredAlu            0      0.00%     82.32% # attempts to use FU when none available
system.switch_cpus.iq.fu_full::MemRead        2601102     13.77%     96.09% # attempts to use FU when none available
system.switch_cpus.iq.fu_full::MemWrite        625859      3.31%     99.41% # attempts to use FU when none available
system.switch_cpus.iq.fu_full::FloatMemRead            7      0.00%     99.41% # attempts to use FU when none available
system.switch_cpus.iq.fu_full::FloatMemWrite       111818      0.59%    100.00% # attempts to use FU when none available
system.switch_cpus.iq.fu_full::IprAccess            0      0.00%    100.00% # attempts to use FU when none available
system.switch_cpus.iq.fu_full::InstPrefetch            0      0.00%    100.00% # attempts to use FU when none available
system.switch_cpus.iq.int_alu_accesses     1271670368                       # Number of integer alu accesses
system.switch_cpus.iq.int_inst_queue_reads   3084738667                       # Number of integer instruction queue reads
system.switch_cpus.iq.int_inst_queue_wakeup_accesses   1184432011                       # Number of integer instruction queue wakeup accesses
system.switch_cpus.iq.int_inst_queue_writes   2194027386                       # Number of integer instruction queue writes
system.switch_cpus.iq.iqInstsAdded         1517379297                       # Number of instructions added to the IQ (excludes non-spec)
system.switch_cpus.iq.iqInstsIssued        1265532891                       # Number of instructions issued
system.switch_cpus.iq.iqNonSpecInstsAdded           35                       # Number of non-speculative instructions added to the IQ
system.switch_cpus.iq.iqSquashedInstsExamined    677700490                       # Number of squashed instructions iterated over during squash; mainly for profiling
system.switch_cpus.iq.iqSquashedInstsIssued      7400647                       # Number of squashed instructions issued
system.switch_cpus.iq.iqSquashedNonSpecRemoved           32                       # Number of squashed non-spec instructions that were removed
system.switch_cpus.iq.iqSquashedOperandsExamined    993360822                       # Number of squashed operands that are examined and possibly removed from graph
system.switch_cpus.iq.issued_per_cycle::samples    529548621                       # Number of insts issued each cycle
system.switch_cpus.iq.issued_per_cycle::mean     2.389833                       # Number of insts issued each cycle
system.switch_cpus.iq.issued_per_cycle::stdev     2.494661                       # Number of insts issued each cycle
system.switch_cpus.iq.issued_per_cycle::underflows            0      0.00%      0.00% # Number of insts issued each cycle
system.switch_cpus.iq.issued_per_cycle::0    201217902     38.00%     38.00% # Number of insts issued each cycle
system.switch_cpus.iq.issued_per_cycle::1     57047362     10.77%     48.77% # Number of insts issued each cycle
system.switch_cpus.iq.issued_per_cycle::2     49359358      9.32%     58.09% # Number of insts issued each cycle
system.switch_cpus.iq.issued_per_cycle::3     46944903      8.87%     66.96% # Number of insts issued each cycle
system.switch_cpus.iq.issued_per_cycle::4     45995759      8.69%     75.64% # Number of insts issued each cycle
system.switch_cpus.iq.issued_per_cycle::5     45072531      8.51%     84.15% # Number of insts issued each cycle
system.switch_cpus.iq.issued_per_cycle::6     42721811      8.07%     92.22% # Number of insts issued each cycle
system.switch_cpus.iq.issued_per_cycle::7     26256413      4.96%     97.18% # Number of insts issued each cycle
system.switch_cpus.iq.issued_per_cycle::8     14932582      2.82%    100.00% # Number of insts issued each cycle
system.switch_cpus.iq.issued_per_cycle::overflows            0      0.00%    100.00% # Number of insts issued each cycle
system.switch_cpus.iq.issued_per_cycle::min_value            0                       # Number of insts issued each cycle
system.switch_cpus.iq.issued_per_cycle::max_value            8                       # Number of insts issued each cycle
system.switch_cpus.iq.issued_per_cycle::total    529548621                       # Number of insts issued each cycle
system.switch_cpus.iq.rate                   2.381566                       # Inst issue rate
system.switch_cpus.iq.vec_alu_accesses              0                       # Number of vector alu accesses
system.switch_cpus.iq.vec_inst_queue_reads            0                       # Number of vector instruction queue reads
system.switch_cpus.iq.vec_inst_queue_wakeup_accesses            0                       # Number of vector instruction queue wakeup accesses
system.switch_cpus.iq.vec_inst_queue_writes            0                       # Number of vector instruction queue writes
system.switch_cpus.itb.rdAccesses                   0                       # TLB accesses on read requests
system.switch_cpus.itb.rdMisses                     0                       # TLB misses on read requests
system.switch_cpus.itb.wrAccesses           135137380                       # TLB accesses on write requests
system.switch_cpus.itb.wrMisses                   271                       # TLB misses on write requests
system.switch_cpus.memDep0.conflictingLoads     18269118                       # Number of conflicting loads.
system.switch_cpus.memDep0.conflictingStores      9984782                       # Number of conflicting stores.
system.switch_cpus.memDep0.insertedLoads    227252276                       # Number of loads inserted to the mem dependence unit.
system.switch_cpus.memDep0.insertedStores     99670142                       # Number of stores inserted to the mem dependence unit.
system.switch_cpus.misc_regfile_reads       502476059                       # number of misc regfile reads
system.switch_cpus.numCycles                531386794                       # number of cpu cycles simulated
system.switch_cpus.numWorkItemsCompleted            0                       # number of work items this cpu completed
system.switch_cpus.numWorkItemsStarted              0                       # number of work items this cpu started
system.switch_cpus.rename.BlockCycles        96246660                       # Number of cycles rename is blocking
system.switch_cpus.rename.CommittedMaps    1077491149                       # Number of HB maps that are committed
system.switch_cpus.rename.IQFullEvents        9001937                       # Number of times rename has blocked due to IQ full
system.switch_cpus.rename.IdleCycles        149576475                       # Number of cycles rename is idle
system.switch_cpus.rename.LQFullEvents         241339                       # Number of times rename has blocked due to LQ full
system.switch_cpus.rename.ROBFullEvents        395630                       # Number of times rename has blocked due to ROB full
system.switch_cpus.rename.RenameLookups    4293095553                       # Number of register rename lookups that rename has made
system.switch_cpus.rename.RenamedInsts     1747430618                       # Number of instructions processed by rename
system.switch_cpus.rename.RenamedOperands   2171041209                       # Number of destination operands rename has renamed
system.switch_cpus.rename.RunCycles         249921904                       # Number of cycles rename is running
system.switch_cpus.rename.SQFullEvents         400799                       # Number of times rename has blocked due to SQ full
system.switch_cpus.rename.SquashCycles       21877734                       # Number of cycles rename is squashing
system.switch_cpus.rename.UnblockCycles      11925812                       # Number of cycles rename is unblocking
system.switch_cpus.rename.UndoneMaps       1093550013                       # Number of HB maps that are undone due to squashing
system.switch_cpus.rename.fp_rename_lookups      1449527                       # Number of floating rename lookups
system.switch_cpus.rename.int_rename_lookups   2750906102                       # Number of integer rename lookups
system.switch_cpus.rename.serializeStallCycles           30                       # count of cycles rename stalled for serializing inst
system.switch_cpus.rename.serializingInsts            4                       # count of serializing insts renamed
system.switch_cpus.rename.skidInsts          33279473                       # count of insts added to the skid buffer
system.switch_cpus.rename.tempSerializingInsts            4                       # count of temporary serializing insts renamed
system.switch_cpus.rob.rob_reads           1902756128                       # The number of ROB reads
system.switch_cpus.rob.rob_writes          3137579800                       # The number of ROB writes
system.switch_cpus.timesIdled                  258325                       # Number of times that the entire CPU went into an idle state and unscheduled itself
system.tol2bus.snoop_filter.hit_multi_requests          805                       # Number of requests hitting in the snoop filter with multiple (>1) holders of the requested data.
system.tol2bus.snoop_filter.hit_multi_snoops            0                       # Number of snoops hitting in the snoop filter with multiple (>1) holders of the requested data.
system.tol2bus.snoop_filter.hit_single_requests      1837058                       # Number of requests hitting in the snoop filter with a single holder of the requested data.
system.tol2bus.snoop_filter.hit_single_snoops        18514                       # Number of snoops hitting in the snoop filter with a single holder of the requested data.
system.tol2bus.snoop_filter.tot_requests      3674116                       # Total number of requests made to the snoop filter.
system.tol2bus.snoop_filter.tot_snoops          18514                       # Total number of snoops made to the snoop filter.
system.membus.pwrStateResidencyTicks::UNDEFINED 1308098505500                       # Cumulative time (in ticks) in various power states
system.membus.trans_dist::ReadResp             160348                       # Transaction distribution
system.membus.trans_dist::WritebackDirty       102848                       # Transaction distribution
system.membus.trans_dist::CleanEvict            73389                       # Transaction distribution
system.membus.trans_dist::ReadExReq             15966                       # Transaction distribution
system.membus.trans_dist::ReadExResp            15966                       # Transaction distribution
system.membus.trans_dist::ReadSharedReq        160348                       # Transaction distribution
system.membus.pkt_count_system.l2.mem_side::system.mem_ctrls.port       528865                       # Packet count per connected master and slave (bytes)
system.membus.pkt_count_system.l2.mem_side::total       528865                       # Packet count per connected master and slave (bytes)
system.membus.pkt_count::total                 528865                       # Packet count per connected master and slave (bytes)
system.membus.pkt_size_system.l2.mem_side::system.mem_ctrls.port     17866368                       # Cumulative packet size per connected master and slave (bytes)
system.membus.pkt_size_system.l2.mem_side::total     17866368                       # Cumulative packet size per connected master and slave (bytes)
system.membus.pkt_size::total                17866368                       # Cumulative packet size per connected master and slave (bytes)
system.membus.snoops                                0                       # Total snoops (count)
system.membus.snoopTraffic                          0                       # Total snoop traffic (bytes)
system.membus.snoop_fanout::samples            176314                       # Request fanout histogram
system.membus.snoop_fanout::mean                    0                       # Request fanout histogram
system.membus.snoop_fanout::stdev                   0                       # Request fanout histogram
system.membus.snoop_fanout::underflows              0      0.00%      0.00% # Request fanout histogram
system.membus.snoop_fanout::0                  176314    100.00%    100.00% # Request fanout histogram
system.membus.snoop_fanout::1                       0      0.00%    100.00% # Request fanout histogram
system.membus.snoop_fanout::overflows               0      0.00%    100.00% # Request fanout histogram
system.membus.snoop_fanout::min_value               0                       # Request fanout histogram
system.membus.snoop_fanout::max_value               0                       # Request fanout histogram
system.membus.snoop_fanout::total              176314                       # Request fanout histogram
system.membus.reqLayer2.occupancy           808215000                       # Layer occupancy (ticks)
system.membus.reqLayer2.utilization               0.3                       # Layer utilization (%)
system.membus.respLayer1.occupancy          945383000                       # Layer occupancy (ticks)
system.membus.respLayer1.utilization              0.4                       # Layer utilization (%)
system.switch_cpus.pwrStateResidencyTicks::OFF 1308098505500                       # Cumulative time (in ticks) in various power states
system.switch_cpus.dtb.walker.pwrStateResidencyTicks::UNDEFINED 1308098505500                       # Cumulative time (in ticks) in various power states
system.switch_cpus.itb.walker.pwrStateResidencyTicks::UNDEFINED 1308098505500                       # Cumulative time (in ticks) in various power states
system.tol2bus.pwrStateResidencyTicks::UNDEFINED 1308098505500                       # Cumulative time (in ticks) in various power states
system.tol2bus.trans_dist::ReadResp           1622384                       # Transaction distribution
system.tol2bus.trans_dist::WritebackDirty       569300                       # Transaction distribution
system.tol2bus.trans_dist::WritebackClean       995313                       # Transaction distribution
system.tol2bus.trans_dist::CleanEvict          461656                       # Transaction distribution
system.tol2bus.trans_dist::ReadExReq           214674                       # Transaction distribution
system.tol2bus.trans_dist::ReadExResp          214674                       # Transaction distribution
system.tol2bus.trans_dist::ReadCleanReq        995313                       # Transaction distribution
system.tol2bus.trans_dist::ReadSharedReq       627071                       # Transaction distribution
system.tol2bus.pkt_count_system.cpu.icache.mem_side::system.l2.cpu_side      2985939                       # Packet count per connected master and slave (bytes)
system.tol2bus.pkt_count_system.cpu.dcache.mem_side::system.l2.cpu_side      2525235                       # Packet count per connected master and slave (bytes)
system.tol2bus.pkt_count::total               5511174                       # Packet count per connected master and slave (bytes)
system.tol2bus.pkt_size_system.cpu.icache.mem_side::system.l2.cpu_side    127400064                       # Cumulative packet size per connected master and slave (bytes)
system.tol2bus.pkt_size_system.cpu.dcache.mem_side::system.l2.cpu_side     83724608                       # Cumulative packet size per connected master and slave (bytes)
system.tol2bus.pkt_size::total              211124672                       # Cumulative packet size per connected master and slave (bytes)
system.tol2bus.snoops                          189211                       # Total snoops (count)
system.tol2bus.snoopTraffic                   6582272                       # Total snoop traffic (bytes)
system.tol2bus.snoop_fanout::samples          2026269                       # Request fanout histogram
system.tol2bus.snoop_fanout::mean            0.009534                       # Request fanout histogram
system.tol2bus.snoop_fanout::stdev           0.097177                       # Request fanout histogram
system.tol2bus.snoop_fanout::underflows             0      0.00%      0.00% # Request fanout histogram
system.tol2bus.snoop_fanout::0                2006950     99.05%     99.05% # Request fanout histogram
system.tol2bus.snoop_fanout::1                  19319      0.95%    100.00% # Request fanout histogram
system.tol2bus.snoop_fanout::2                      0      0.00%    100.00% # Request fanout histogram
system.tol2bus.snoop_fanout::3                      0      0.00%    100.00% # Request fanout histogram
system.tol2bus.snoop_fanout::4                      0      0.00%    100.00% # Request fanout histogram
system.tol2bus.snoop_fanout::overflows              0      0.00%    100.00% # Request fanout histogram
system.tol2bus.snoop_fanout::min_value              0                       # Request fanout histogram
system.tol2bus.snoop_fanout::max_value              1                       # Request fanout histogram
system.tol2bus.snoop_fanout::total            2026269                       # Request fanout histogram
system.tol2bus.reqLayer0.occupancy         3298823000                       # Layer occupancy (ticks)
system.tol2bus.reqLayer0.utilization              1.2                       # Layer utilization (%)
system.tol2bus.respLayer1.occupancy        1262645444                       # Layer occupancy (ticks)
system.tol2bus.respLayer1.utilization             0.5                       # Layer utilization (%)
system.tol2bus.respLayer0.occupancy        1492986965                       # Layer occupancy (ticks)
system.tol2bus.respLayer0.utilization             0.6                       # Layer utilization (%)
system.voltage_domain.voltage                       1                       # Voltage in Volts
system.clk_domain.clock                          1000                       # Clock period in ticks
system.l2.pwrStateResidencyTicks::UNDEFINED 1308098505500                       # Cumulative time (in ticks) in various power states
system.l2.demand_hits::.switch_cpus.inst       991113                       # number of demand (read+write) hits
system.l2.demand_hits::.switch_cpus.data       669631                       # number of demand (read+write) hits
system.l2.demand_hits::total                  1660744                       # number of demand (read+write) hits
system.l2.overall_hits::.switch_cpus.inst       991113                       # number of overall hits
system.l2.overall_hits::.switch_cpus.data       669631                       # number of overall hits
system.l2.overall_hits::total                 1660744                       # number of overall hits
system.l2.demand_misses::.switch_cpus.inst         4200                       # number of demand (read+write) misses
system.l2.demand_misses::.switch_cpus.data       172114                       # number of demand (read+write) misses
system.l2.demand_misses::total                 176314                       # number of demand (read+write) misses
system.l2.overall_misses::.switch_cpus.inst         4200                       # number of overall misses
system.l2.overall_misses::.switch_cpus.data       172114                       # number of overall misses
system.l2.overall_misses::total                176314                       # number of overall misses
system.l2.demand_miss_latency::.switch_cpus.inst    358812500                       # number of demand (read+write) miss cycles
system.l2.demand_miss_latency::.switch_cpus.data  14954264500                       # number of demand (read+write) miss cycles
system.l2.demand_miss_latency::total      15313077000                       # number of demand (read+write) miss cycles
system.l2.overall_miss_latency::.switch_cpus.inst    358812500                       # number of overall miss cycles
system.l2.overall_miss_latency::.switch_cpus.data  14954264500                       # number of overall miss cycles
system.l2.overall_miss_latency::total     15313077000                       # number of overall miss cycles
system.l2.demand_accesses::.switch_cpus.inst       995313                       # number of demand (read+write) accesses
system.l2.demand_accesses::.switch_cpus.data       841745                       # number of demand (read+write) accesses
system.l2.demand_accesses::total              1837058                       # number of demand (read+write) accesses
system.l2.overall_accesses::.switch_cpus.inst       995313                       # number of overall (read+write) accesses
system.l2.overall_accesses::.switch_cpus.data       841745                       # number of overall (read+write) accesses
system.l2.overall_accesses::total             1837058                       # number of overall (read+write) accesses
system.l2.demand_miss_rate::.switch_cpus.inst     0.004220                       # miss rate for demand accesses
system.l2.demand_miss_rate::.switch_cpus.data     0.204473                       # miss rate for demand accesses
system.l2.demand_miss_rate::total            0.095976                       # miss rate for demand accesses
system.l2.overall_miss_rate::.switch_cpus.inst     0.004220                       # miss rate for overall accesses
system.l2.overall_miss_rate::.switch_cpus.data     0.204473                       # miss rate for overall accesses
system.l2.overall_miss_rate::total           0.095976                       # miss rate for overall accesses
system.l2.demand_avg_miss_latency::.switch_cpus.inst 85431.547619                       # average overall miss latency
system.l2.demand_avg_miss_latency::.switch_cpus.data 86885.811148                       # average overall miss latency
system.l2.demand_avg_miss_latency::total 86851.168937                       # average overall miss latency
system.l2.overall_avg_miss_latency::.switch_cpus.inst 85431.547619                       # average overall miss latency
system.l2.overall_avg_miss_latency::.switch_cpus.data 86885.811148                       # average overall miss latency
system.l2.overall_avg_miss_latency::total 86851.168937                       # average overall miss latency
system.l2.blocked_cycles::no_mshrs                  0                       # number of cycles access was blocked
system.l2.blocked_cycles::no_targets                0                       # number of cycles access was blocked
system.l2.blocked::no_mshrs                         0                       # number of cycles access was blocked
system.l2.blocked::no_targets                       0                       # number of cycles access was blocked
system.l2.avg_blocked_cycles::no_mshrs            nan                       # average number of cycles each access was blocked
system.l2.avg_blocked_cycles::no_targets          nan                       # average number of cycles each access was blocked
system.l2.writebacks::.writebacks              102848                       # number of writebacks
system.l2.writebacks::total                    102848                       # number of writebacks
system.l2.demand_mshr_misses::.switch_cpus.inst         4200                       # number of demand (read+write) MSHR misses
system.l2.demand_mshr_misses::.switch_cpus.data       172114                       # number of demand (read+write) MSHR misses
system.l2.demand_mshr_misses::total            176314                       # number of demand (read+write) MSHR misses
system.l2.overall_mshr_misses::.switch_cpus.inst         4200                       # number of overall MSHR misses
system.l2.overall_mshr_misses::.switch_cpus.data       172114                       # number of overall MSHR misses
system.l2.overall_mshr_misses::total           176314                       # number of overall MSHR misses
system.l2.demand_mshr_miss_latency::.switch_cpus.inst    316812500                       # number of demand (read+write) MSHR miss cycles
system.l2.demand_mshr_miss_latency::.switch_cpus.data  13233124500                       # number of demand (read+write) MSHR miss cycles
system.l2.demand_mshr_miss_latency::total  13549937000                       # number of demand (read+write) MSHR miss cycles
system.l2.overall_mshr_miss_latency::.switch_cpus.inst    316812500                       # number of overall MSHR miss cycles
system.l2.overall_mshr_miss_latency::.switch_cpus.data  13233124500                       # number of overall MSHR miss cycles
system.l2.overall_mshr_miss_latency::total  13549937000                       # number of overall MSHR miss cycles
system.l2.demand_mshr_miss_rate::.switch_cpus.inst     0.004220                       # mshr miss rate for demand accesses
system.l2.demand_mshr_miss_rate::.switch_cpus.data     0.204473                       # mshr miss rate for demand accesses
system.l2.demand_mshr_miss_rate::total       0.095976                       # mshr miss rate for demand accesses
system.l2.overall_mshr_miss_rate::.switch_cpus.inst     0.004220                       # mshr miss rate for overall accesses
system.l2.overall_mshr_miss_rate::.switch_cpus.data     0.204473                       # mshr miss rate for overall accesses
system.l2.overall_mshr_miss_rate::total      0.095976                       # mshr miss rate for overall accesses
system.l2.demand_avg_mshr_miss_latency::.switch_cpus.inst 75431.547619                       # average overall mshr miss latency
system.l2.demand_avg_mshr_miss_latency::.switch_cpus.data 76885.811148                       # average overall mshr miss latency
system.l2.demand_avg_mshr_miss_latency::total 76851.168937                       # average overall mshr miss latency
system.l2.overall_avg_mshr_miss_latency::.switch_cpus.inst 75431.547619                       # average overall mshr miss latency
system.l2.overall_avg_mshr_miss_latency::.switch_cpus.data 76885.811148                       # average overall mshr miss latency
system.l2.overall_avg_mshr_miss_latency::total 76851.168937                       # average overall mshr miss latency
system.l2.replacements                         189211                       # number of replacements
system.l2.WritebackDirty_hits::.writebacks       466452                       # number of WritebackDirty hits
system.l2.WritebackDirty_hits::total           466452                       # number of WritebackDirty hits
system.l2.WritebackDirty_accesses::.writebacks       466452                       # number of WritebackDirty accesses(hits+misses)
system.l2.WritebackDirty_accesses::total       466452                       # number of WritebackDirty accesses(hits+misses)
system.l2.WritebackClean_hits::.writebacks       994782                       # number of WritebackClean hits
system.l2.WritebackClean_hits::total           994782                       # number of WritebackClean hits
system.l2.WritebackClean_accesses::.writebacks       994782                       # number of WritebackClean accesses(hits+misses)
system.l2.WritebackClean_accesses::total       994782                       # number of WritebackClean accesses(hits+misses)
system.l2.CleanEvict_mshr_misses::.writebacks         5540                       # number of CleanEvict MSHR misses
system.l2.CleanEvict_mshr_misses::total          5540                       # number of CleanEvict MSHR misses
system.l2.CleanEvict_mshr_miss_rate::.writebacks          inf                       # mshr miss rate for CleanEvict accesses
system.l2.CleanEvict_mshr_miss_rate::total          inf                       # mshr miss rate for CleanEvict accesses
system.l2.ReadExReq_hits::.switch_cpus.data       198708                       # number of ReadExReq hits
system.l2.ReadExReq_hits::total                198708                       # number of ReadExReq hits
system.l2.ReadExReq_misses::.switch_cpus.data        15966                       # number of ReadExReq misses
system.l2.ReadExReq_misses::total               15966                       # number of ReadExReq misses
system.l2.ReadExReq_miss_latency::.switch_cpus.data   1263956500                       # number of ReadExReq miss cycles
system.l2.ReadExReq_miss_latency::total    1263956500                       # number of ReadExReq miss cycles
system.l2.ReadExReq_accesses::.switch_cpus.data       214674                       # number of ReadExReq accesses(hits+misses)
system.l2.ReadExReq_accesses::total            214674                       # number of ReadExReq accesses(hits+misses)
system.l2.ReadExReq_miss_rate::.switch_cpus.data     0.074373                       # miss rate for ReadExReq accesses
system.l2.ReadExReq_miss_rate::total         0.074373                       # miss rate for ReadExReq accesses
system.l2.ReadExReq_avg_miss_latency::.switch_cpus.data 79165.507954                       # average ReadExReq miss latency
system.l2.ReadExReq_avg_miss_latency::total 79165.507954                       # average ReadExReq miss latency
system.l2.ReadExReq_mshr_misses::.switch_cpus.data        15966                       # number of ReadExReq MSHR misses
system.l2.ReadExReq_mshr_misses::total          15966                       # number of ReadExReq MSHR misses
system.l2.ReadExReq_mshr_miss_latency::.switch_cpus.data   1104296500                       # number of ReadExReq MSHR miss cycles
system.l2.ReadExReq_mshr_miss_latency::total   1104296500                       # number of ReadExReq MSHR miss cycles
system.l2.ReadExReq_mshr_miss_rate::.switch_cpus.data     0.074373                       # mshr miss rate for ReadExReq accesses
system.l2.ReadExReq_mshr_miss_rate::total     0.074373                       # mshr miss rate for ReadExReq accesses
system.l2.ReadExReq_avg_mshr_miss_latency::.switch_cpus.data 69165.507954                       # average ReadExReq mshr miss latency
system.l2.ReadExReq_avg_mshr_miss_latency::total 69165.507954                       # average ReadExReq mshr miss latency
system.l2.ReadCleanReq_hits::.switch_cpus.inst       991113                       # number of ReadCleanReq hits
system.l2.ReadCleanReq_hits::total             991113                       # number of ReadCleanReq hits
system.l2.ReadCleanReq_misses::.switch_cpus.inst         4200                       # number of ReadCleanReq misses
system.l2.ReadCleanReq_misses::total             4200                       # number of ReadCleanReq misses
system.l2.ReadCleanReq_miss_latency::.switch_cpus.inst    358812500                       # number of ReadCleanReq miss cycles
system.l2.ReadCleanReq_miss_latency::total    358812500                       # number of ReadCleanReq miss cycles
system.l2.ReadCleanReq_accesses::.switch_cpus.inst       995313                       # number of ReadCleanReq accesses(hits+misses)
system.l2.ReadCleanReq_accesses::total         995313                       # number of ReadCleanReq accesses(hits+misses)
system.l2.ReadCleanReq_miss_rate::.switch_cpus.inst     0.004220                       # miss rate for ReadCleanReq accesses
system.l2.ReadCleanReq_miss_rate::total      0.004220                       # miss rate for ReadCleanReq accesses
system.l2.ReadCleanReq_avg_miss_latency::.switch_cpus.inst 85431.547619                       # average ReadCleanReq miss latency
system.l2.ReadCleanReq_avg_miss_latency::total 85431.547619                       # average ReadCleanReq miss latency
system.l2.ReadCleanReq_mshr_misses::.switch_cpus.inst         4200                       # number of ReadCleanReq MSHR misses
system.l2.ReadCleanReq_mshr_misses::total         4200                       # number of ReadCleanReq MSHR misses
system.l2.ReadCleanReq_mshr_miss_latency::.switch_cpus.inst    316812500                       # number of ReadCleanReq MSHR miss cycles
system.l2.ReadCleanReq_mshr_miss_latency::total    316812500                       # number of ReadCleanReq MSHR miss cycles
system.l2.ReadCleanReq_mshr_miss_rate::.switch_cpus.inst     0.004220                       # mshr miss rate for ReadCleanReq accesses
system.l2.ReadCleanReq_mshr_miss_rate::total     0.004220                       # mshr miss rate for ReadCleanReq accesses
system.l2.ReadCleanReq_avg_mshr_miss_latency::.switch_cpus.inst 75431.547619                       # average ReadCleanReq mshr miss latency
system.l2.ReadCleanReq_avg_mshr_miss_latency::total 75431.547619                       # average ReadCleanReq mshr miss latency
system.l2.ReadSharedReq_hits::.switch_cpus.data       470923                       # number of ReadSharedReq hits
system.l2.ReadSharedReq_hits::total            470923                       # number of ReadSharedReq hits
system.l2.ReadSharedReq_misses::.switch_cpus.data       156148                       # number of ReadSharedReq misses
system.l2.ReadSharedReq_misses::total          156148                       # number of ReadSharedReq misses
system.l2.ReadSharedReq_miss_latency::.switch_cpus.data  13690308000                       # number of ReadSharedReq miss cycles
system.l2.ReadSharedReq_miss_latency::total  13690308000                       # number of ReadSharedReq miss cycles
[...]
system.cpu.itb_walker_cache.blocked::no_mshrs            0                       # number of cycles access was blocked
system.cpu.itb_walker_cache.blocked::no_targets            0                       # number of cycles access was blocked
system.cpu.itb_walker_cache.avg_blocked_cycles::no_mshrs          nan                       # average number of cycles each access was blocked
system.cpu.itb_walker_cache.avg_blocked_cycles::no_targets          nan                       # average number of cycles each access was blocked
system.cpu.itb_walker_cache.replacements            0                       # number of replacements
system.cpu.itb_walker_cache.tags.pwrStateResidencyTicks::UNDEFINED 1308098505500                       # Cumulative time (in ticks) in various power states
system.cpu.itb_walker_cache.tags.tagsinuse            0                       # Cycle average of tags in use
system.cpu.itb_walker_cache.tags.total_refs            0                       # Total number of references to valid blocks.
system.cpu.itb_walker_cache.tags.sampled_refs            0                       # Sample count of references to valid blocks.
system.cpu.itb_walker_cache.tags.avg_refs          nan                       # Average number of references to valid blocks.
system.cpu.itb_walker_cache.tags.warmup_cycle            0                       # Cycle when the warmup percentage was hit.
system.cpu.itb_walker_cache.tags.tag_accesses            0                       # Number of tag accesses
system.cpu.itb_walker_cache.tags.data_accesses            0                       # Number of data accesses
system.cpu.itb.walker.pwrStateResidencyTicks::UNDEFINED 1308098505500                       # Cumulative time (in ticks) in various power states
system.cpu.dtb_walker_cache.pwrStateResidencyTicks::UNDEFINED 1308098505500                       # Cumulative time (in ticks) in various power states
system.cpu.dtb_walker_cache.blocked_cycles::no_mshrs            0                       # number of cycles access was blocked
system.cpu.dtb_walker_cache.blocked_cycles::no_targets            0                       # number of cycles access was blocked
system.cpu.dtb_walker_cache.blocked::no_mshrs            0                       # number of cycles access was blocked
system.cpu.dtb_walker_cache.blocked::no_targets            0                       # number of cycles access was blocked
system.cpu.dtb_walker_cache.avg_blocked_cycles::no_mshrs          nan                       # average number of cycles each access was blocked
system.cpu.dtb_walker_cache.avg_blocked_cycles::no_targets          nan                       # average number of cycles each access was blocked
system.cpu.dtb_walker_cache.replacements            0                       # number of replacements
system.cpu.dtb_walker_cache.tags.pwrStateResidencyTicks::UNDEFINED 1308098505500                       # Cumulative time (in ticks) in various power states
system.cpu.dtb_walker_cache.tags.tagsinuse            0                       # Cycle average of tags in use
system.cpu.dtb_walker_cache.tags.total_refs            0                       # Total number of references to valid blocks.
system.cpu.dtb_walker_cache.tags.sampled_refs            0                       # Sample count of references to valid blocks.
system.cpu.dtb_walker_cache.tags.avg_refs          nan                       # Average number of references to valid blocks.
system.cpu.dtb_walker_cache.tags.warmup_cycle            0                       # Cycle when the warmup percentage was hit.
system.cpu.dtb_walker_cache.tags.tag_accesses            0                       # Number of tag accesses
system.cpu.dtb_walker_cache.tags.data_accesses            0                       # Number of data accesses
system.cpu.dcache.pwrStateResidencyTicks::UNDEFINED 1308098505500                       # Cumulative time (in ticks) in various power states
system.cpu.dcache.demand_hits::.cpu.data    456732581                       # number of demand (read+write) hits
system.cpu.dcache.demand_hits::.switch_cpus.data    219763364                       # number of demand (read+write) hits
system.cpu.dcache.demand_hits::total        676495945                       # number of demand (read+write) hits
system.cpu.dcache.overall_hits::.cpu.data    456732581                       # number of overall hits
system.cpu.dcache.overall_hits::.switch_cpus.data    219763364                       # number of overall hits
system.cpu.dcache.overall_hits::total       676495945                       # number of overall hits
system.cpu.dcache.demand_misses::.cpu.data     23923740                       # number of demand (read+write) misses
system.cpu.dcache.demand_misses::.switch_cpus.data      1261031                       # number of demand (read+write) misses
system.cpu.dcache.demand_misses::total       25184771                       # number of demand (read+write) misses
system.cpu.dcache.overall_misses::.cpu.data     23923740                       # number of overall misses
system.cpu.dcache.overall_misses::.switch_cpus.data      1261031                       # number of overall misses
system.cpu.dcache.overall_misses::total      25184771                       # number of overall misses
system.cpu.dcache.demand_miss_latency::.switch_cpus.data  44788695499                       # number of demand (read+write) miss cycles
system.cpu.dcache.demand_miss_latency::total  44788695499                       # number of demand (read+write) miss cycles
system.cpu.dcache.overall_miss_latency::.switch_cpus.data  44788695499                       # number of overall miss cycles
system.cpu.dcache.overall_miss_latency::total  44788695499                       # number of overall miss cycles
system.cpu.dcache.demand_accesses::.cpu.data    480656321                       # number of demand (read+write) accesses
system.cpu.dcache.demand_accesses::.switch_cpus.data    221024395                       # number of demand (read+write) accesses
system.cpu.dcache.demand_accesses::total    701680716                       # number of demand (read+write) accesses
system.cpu.dcache.overall_accesses::.cpu.data    480656321                       # number of overall (read+write) accesses
system.cpu.dcache.overall_accesses::.switch_cpus.data    221024395                       # number of overall (read+write) accesses
system.cpu.dcache.overall_accesses::total    701680716                       # number of overall (read+write) accesses
system.cpu.dcache.demand_miss_rate::.cpu.data     0.049773                       # miss rate for demand accesses
system.cpu.dcache.demand_miss_rate::.switch_cpus.data     0.005705                       # miss rate for demand accesses
system.cpu.dcache.demand_miss_rate::total     0.035892                       # miss rate for demand accesses
system.cpu.dcache.overall_miss_rate::.cpu.data     0.049773                       # miss rate for overall accesses
system.cpu.dcache.overall_miss_rate::.switch_cpus.data     0.005705                       # miss rate for overall accesses
system.cpu.dcache.overall_miss_rate::total     0.035892                       # miss rate for overall accesses
system.cpu.dcache.demand_avg_miss_latency::.switch_cpus.data 35517.521377                       # average overall miss latency
system.cpu.dcache.demand_avg_miss_latency::total  1778.403921                       # average overall miss latency
system.cpu.dcache.overall_avg_miss_latency::.switch_cpus.data 35517.521377                       # average overall miss latency
system.cpu.dcache.overall_avg_miss_latency::total  1778.403921                       # average overall miss latency
system.cpu.dcache.blocked_cycles::no_mshrs        25158                       # number of cycles access was blocked
system.cpu.dcache.blocked_cycles::no_targets            0                       # number of cycles access was blocked
system.cpu.dcache.blocked::no_mshrs              1057                       # number of cycles access was blocked
system.cpu.dcache.blocked::no_targets               0                       # number of cycles access was blocked
system.cpu.dcache.avg_blocked_cycles::no_mshrs    23.801325                       # average number of cycles each access was blocked
system.cpu.dcache.avg_blocked_cycles::no_targets          nan                       # average number of cycles each access was blocked
system.cpu.dcache.writebacks::.writebacks     23874954                       # number of writebacks
system.cpu.dcache.writebacks::total          23874954                       # number of writebacks
system.cpu.dcache.demand_mshr_hits::.switch_cpus.data       419286                       # number of demand (read+write) MSHR hits
system.cpu.dcache.demand_mshr_hits::total       419286                       # number of demand (read+write) MSHR hits
system.cpu.dcache.overall_mshr_hits::.switch_cpus.data       419286                       # number of overall MSHR hits
system.cpu.dcache.overall_mshr_hits::total       419286                       # number of overall MSHR hits
system.cpu.dcache.demand_mshr_misses::.switch_cpus.data       841745                       # number of demand (read+write) MSHR misses
system.cpu.dcache.demand_mshr_misses::total       841745                       # number of demand (read+write) MSHR misses
system.cpu.dcache.overall_mshr_misses::.switch_cpus.data       841745                       # number of overall MSHR misses
system.cpu.dcache.overall_mshr_misses::total       841745                       # number of overall MSHR misses
system.cpu.dcache.demand_mshr_miss_latency::.switch_cpus.data  23328794999                       # number of demand (read+write) MSHR miss cycles
system.cpu.dcache.demand_mshr_miss_latency::total  23328794999                       # number of demand (read+write) MSHR miss cycles
system.cpu.dcache.overall_mshr_miss_latency::.switch_cpus.data  23328794999                       # number of overall MSHR miss cycles
system.cpu.dcache.overall_mshr_miss_latency::total  23328794999                       # number of overall MSHR miss cycles
system.cpu.dcache.demand_mshr_miss_rate::.switch_cpus.data     0.003808                       # mshr miss rate for demand accesses
system.cpu.dcache.demand_mshr_miss_rate::total     0.001200                       # mshr miss rate for demand accesses
system.cpu.dcache.overall_mshr_miss_rate::.switch_cpus.data     0.003808                       # mshr miss rate for overall accesses
system.cpu.dcache.overall_mshr_miss_rate::total     0.001200                       # mshr miss rate for overall accesses
system.cpu.dcache.demand_avg_mshr_miss_latency::.switch_cpus.data 27714.800800                       # average overall mshr miss latency
system.cpu.dcache.demand_avg_mshr_miss_latency::total 27714.800800                       # average overall mshr miss latency
system.cpu.dcache.overall_avg_mshr_miss_latency::.switch_cpus.data 27714.800800                       # average overall mshr miss latency
system.cpu.dcache.overall_avg_mshr_miss_latency::total 27714.800800                       # average overall mshr miss latency
system.cpu.dcache.replacements               24764973                       # number of replacements
system.cpu.dcache.ReadReq_hits::.cpu.data    206532935                       # number of ReadReq hits
system.cpu.dcache.ReadReq_hits::.switch_cpus.data    164768185                       # number of ReadReq hits
system.cpu.dcache.ReadReq_hits::total       371301120                       # number of ReadReq hits
system.cpu.dcache.ReadReq_misses::.cpu.data       879469                       # number of ReadReq misses
system.cpu.dcache.ReadReq_misses::.switch_cpus.data      1035415                       # number of ReadReq misses
system.cpu.dcache.ReadReq_misses::total       1914884                       # number of ReadReq misses
system.cpu.dcache.ReadReq_miss_latency::.switch_cpus.data  40746121000                       # number of ReadReq miss cycles
system.cpu.dcache.ReadReq_miss_latency::total  40746121000                       # number of ReadReq miss cycles
system.cpu.dcache.ReadReq_accesses::.cpu.data    207412404                       # number of ReadReq accesses(hits+misses)
system.cpu.dcache.ReadReq_accesses::.switch_cpus.data    165803600                       # number of ReadReq accesses(hits+misses)
system.cpu.dcache.ReadReq_accesses::total    373216004                       # number of ReadReq accesses(hits+misses)
system.cpu.dcache.ReadReq_miss_rate::.cpu.data     0.004240                       # miss rate for ReadReq accesses
system.cpu.dcache.ReadReq_miss_rate::.switch_cpus.data     0.006245                       # miss rate for ReadReq accesses
system.cpu.dcache.ReadReq_miss_rate::total     0.005131                       # miss rate for ReadReq accesses
system.cpu.dcache.ReadReq_avg_miss_latency::.switch_cpus.data 39352.453847                       # average ReadReq miss latency
system.cpu.dcache.ReadReq_avg_miss_latency::total 21278.636722                       # average ReadReq miss latency
system.cpu.dcache.ReadReq_mshr_hits::.switch_cpus.data       407618                       # number of ReadReq MSHR hits
system.cpu.dcache.ReadReq_mshr_hits::total       407618                       # number of ReadReq MSHR hits
system.cpu.dcache.ReadReq_mshr_misses::.switch_cpus.data       627797                       # number of ReadReq MSHR misses
system.cpu.dcache.ReadReq_mshr_misses::total       627797                       # number of ReadReq MSHR misses
system.cpu.dcache.ReadReq_mshr_miss_latency::.switch_cpus.data  19661420000                       # number of ReadReq MSHR miss cycles
system.cpu.dcache.ReadReq_mshr_miss_latency::total  19661420000                       # number of ReadReq MSHR miss cycles
system.cpu.dcache.ReadReq_mshr_miss_rate::.switch_cpus.data     0.003786                       # mshr miss rate for ReadReq accesses
system.cpu.dcache.ReadReq_mshr_miss_rate::total     0.001682                       # mshr miss rate for ReadReq accesses
system.cpu.dcache.ReadReq_avg_mshr_miss_latency::.switch_cpus.data 31318.117162                       # average ReadReq mshr miss latency
system.cpu.dcache.ReadReq_avg_mshr_miss_latency::total 31318.117162                       # average ReadReq mshr miss latency
system.cpu.dcache.WriteReq_hits::.cpu.data    250199646                       # number of WriteReq hits
system.cpu.dcache.WriteReq_hits::.switch_cpus.data     54995179                       # number of WriteReq hits
system.cpu.dcache.WriteReq_hits::total      305194825                       # number of WriteReq hits
system.cpu.dcache.WriteReq_misses::.cpu.data     23044271                       # number of WriteReq misses
system.cpu.dcache.WriteReq_misses::.switch_cpus.data       225616                       # number of WriteReq misses
system.cpu.dcache.WriteReq_misses::total     23269887                       # number of WriteReq misses
system.cpu.dcache.WriteReq_miss_latency::.switch_cpus.data   4042574499                       # number of WriteReq miss cycles
system.cpu.dcache.WriteReq_miss_latency::total   4042574499                       # number of WriteReq miss cycles
system.cpu.dcache.WriteReq_accesses::.cpu.data    273243917                       # number of WriteReq accesses(hits+misses)
system.cpu.dcache.WriteReq_accesses::.switch_cpus.data     55220795                       # number of WriteReq accesses(hits+misses)
system.cpu.dcache.WriteReq_accesses::total    328464712                       # number of WriteReq accesses(hits+misses)
system.cpu.dcache.WriteReq_miss_rate::.cpu.data     0.084336                       # miss rate for WriteReq accesses
system.cpu.dcache.WriteReq_miss_rate::.switch_cpus.data     0.004086                       # miss rate for WriteReq accesses
system.cpu.dcache.WriteReq_miss_rate::total     0.070844                       # miss rate for WriteReq accesses
system.cpu.dcache.WriteReq_avg_miss_latency::.switch_cpus.data 17917.942429                       # average WriteReq miss latency
system.cpu.dcache.WriteReq_avg_miss_latency::total   173.725575                       # average WriteReq miss latency
system.cpu.dcache.WriteReq_mshr_hits::.switch_cpus.data        11668                       # number of WriteReq MSHR hits
system.cpu.dcache.WriteReq_mshr_hits::total        11668                       # number of WriteReq MSHR hits
system.cpu.dcache.WriteReq_mshr_misses::.switch_cpus.data       213948                       # number of WriteReq MSHR misses
system.cpu.dcache.WriteReq_mshr_misses::total       213948                       # number of WriteReq MSHR misses
system.cpu.dcache.WriteReq_mshr_miss_latency::.switch_cpus.data   3667374999                       # number of WriteReq MSHR miss cycles
system.cpu.dcache.WriteReq_mshr_miss_latency::total   3667374999                       # number of WriteReq MSHR miss cycles
system.cpu.dcache.WriteReq_mshr_miss_rate::.switch_cpus.data     0.003874                       # mshr miss rate for WriteReq accesses
system.cpu.dcache.WriteReq_mshr_miss_rate::total     0.000651                       # mshr miss rate for WriteReq accesses
system.cpu.dcache.WriteReq_avg_mshr_miss_latency::.switch_cpus.data 17141.431558                       # average WriteReq mshr miss latency
system.cpu.dcache.WriteReq_avg_mshr_miss_latency::total 17141.431558                       # average WriteReq mshr miss latency
system.cpu.dcache.tags.pwrStateResidencyTicks::UNDEFINED 1308098505500                       # Cumulative time (in ticks) in various power states
system.cpu.dcache.tags.tagsinuse           511.965507                       # Cycle average of tags in use
system.cpu.dcache.tags.total_refs           575687437                       # Total number of references to valid blocks.
system.cpu.dcache.tags.sampled_refs          24764973                       # Sample count of references to valid blocks.
system.cpu.dcache.tags.avg_refs             23.246035                       # Average number of references to valid blocks.
system.cpu.dcache.tags.warmup_cycle              1000                       # Cycle when the warmup percentage was hit.
system.cpu.dcache.tags.occ_blocks::.cpu.data   410.564898                       # Average occupied blocks per requestor
system.cpu.dcache.tags.occ_blocks::.switch_cpus.data   101.400609                       # Average occupied blocks per requestor
system.cpu.dcache.tags.occ_percent::.cpu.data     0.801885                       # Average percentage of cache occupancy
system.cpu.dcache.tags.occ_percent::.switch_cpus.data     0.198048                       # Average percentage of cache occupancy
system.cpu.dcache.tags.occ_percent::total     0.999933                       # Average percentage of cache occupancy
system.cpu.dcache.tags.occ_task_id_blocks::1024          512                       # Occupied blocks per task id
system.cpu.dcache.tags.age_task_id_blocks_1024::0           38                       # Occupied blocks per task id
system.cpu.dcache.tags.age_task_id_blocks_1024::1           93                       # Occupied blocks per task id
system.cpu.dcache.tags.age_task_id_blocks_1024::2          273                       # Occupied blocks per task id
system.cpu.dcache.tags.age_task_id_blocks_1024::3           83                       # Occupied blocks per task id
system.cpu.dcache.tags.age_task_id_blocks_1024::4           25                       # Occupied blocks per task id
system.cpu.dcache.tags.occ_task_id_percent::1024            1                       # Percentage of cache occupancy per task id
system.cpu.dcache.tags.tag_accesses        2831488349                       # Number of tag accesses
system.cpu.dcache.tags.data_accesses       2831488349                       # Number of data accesses

---------- End Simulation Statistics   ----------
